         TITLE 'IFCEGUS1 - EDIT TABLE - LINKNAME=IFCEGUS1'              00050042
*                                                                       00100042
*********************************************************************** 00150042
*  DSGEN MACRO DSGEN MACRO DSGEN MACRO DSGEN MACRO DSGEN MACRO          00200042
         MACRO                                                          00250042
&NAME    DSGEN ,                                                        00300042
.*                            THIS MACRO GENERATES ONE DSECT WORD       00350042
.*                                 FORMATTED FOR THE SUBJECT LOG RECORD 00400042
.*                                 EACH OPERAND HAS TWO SUB LISTS. THE  00450042
.*                                 FIRST IS THE NAME OF THE LOG ITEM    00500042
.*                                 WHILE THE SECOND IS THE # OF BITS TO 00550042
.*                                 ALLOCATE FOR THIS ITEM. ITEMS MUST   00600042
.*                                 BE DEFINED CONTIGUOUSLY WITHOUT GAPS 00650042
.*                                 UNUSED BIT GROUPS MUST BE GIVEN      00700042
.*                                 DUMMY NAMES. THE NAMES PROVIDED FOR  00750042
.*                                 THE LOG ITEMS MAY THEN BE USED IN    00800042
.*                                 THE CONVERSION MACRO INSTRUCTIONS.   00850042
         GBLA  &BITS(2600),&DB,&DT,&INITIAL                             00900042
         GBLA  &ITEMITR,&ITEMFST(20),&ITEMNBR,&ITEMMDX                  00950042
         GBLA  &ITEMNDX(2600),&ITEMXPT                                  01000042
         GBLA  &LABELNR,&LASTCC,&LB,&LBLCTR(100),&LPTR,&LT              01050042
         GBLA  &NRENTS,&SHIFT(2600)                                     01100042
         GBLB  &DIAGITF,&DIAGLIN,&DIAGSET,&DIAGTST,&FSW,&TEST           01150042
         GBLC  &CARRCON,&CSECT,&DSECT,&ITEM(2600)                       01200042
         GBLC  &LABELS(2600),&LBL(100),&NRENTSX                         01250042
         LCLB  &ONLY1,&CTIND                                            01300042
         LCLA  &START1,&START2,&END1,&END2                              01350042
         LCLC  &SYMBOL,&EQUSYM                                          01400042
         LCLA  &OP,&COUNT,&BYTE,&EQUCNT                                 01450042
         ACTR  500000                                                   01500042
         AIF   (&ITEMITR EQ 0).START                                    01550042
 MNOTE   20,'DSGEN MACRO OCCURRS AFTER ITEMSORT MACRO HAS BEEN ISSUED.' 01600042
         MEXIT                                                          01650042
.START   AIF   (N'&SYSLIST(&OP+1) LT 3).LOOP                            01700042
         AIF   ('&SYSLIST(&OP+1,3)' EQ 'EQU').LOOP     TEST FOR EQU     01750042
  AIF   ('&SYSLIST(&OP+1,3)' EQ '' OR '&SYSLIST(&OP+1,4)' EQ '').ERR1   01800042
         AIF   ('&SYSLIST(&OP+1,3)' GT '&SYSLIST(&OP+1,4)').ERR3        01850042
&START1  SETA  &SYSLIST(&OP+1,3)        GET START COUNT OF 1            01900042
&START2  SETA  &SYSLIST(&OP+1,4)        GET FIRST END COUNT             01950042
         AGO   .SET2A                   BRANCH AROUND                   02000042
         AIF   ('&SYSLIST(&OP+1,5)' GT '&SYSLIST(&OP+1,6)').ERR3        02050042
.ERR1    MNOTE '**FIRST SYMBOL CONCATENATION INCOMPLETE**'              02100042
         MEXIT                                                          02150042
.SET2A   AIF   ('&SYSLIST(&OP+1,5)' EQ ''AND '&SYSLIST(&OP+1,6)' EQ '' X02200042
               ).SET2                   TEST FOR NO SECOND              02250042
  AIF   ('&SYSLIST(&OP+1,5)' EQ '' OR '&SYSLIST(&OP+1,6)' EQ '').ERR2   02300042
&END1    SETA  &SYSLIST(&OP+1,5)        GET START COUNT OF 2            02350042
&END2    SETA  &SYSLIST(&OP+1,6)        GET END COUNT OF 2              02400042
         AGO   .LOOP                                                    02450042
.SET2    ANOP                                                           02500042
&ONLY1   SETB  1                        INDICATE ONLY ONE CONCATENATION 02550042
         AGO   .LOOP                                                    02600042
.ERR2    MNOTE '**SECOND SYMBOL CONCATENATION INCOMPLETE**'             02650042
         MEXIT                                                          02700042
.ERR3    MNOTE '**START GREATER THAN END CONCATENATION**'               02750042
         MEXIT                                                          02800042
.LOOP    ANOP                                                           02850042
&OP      SETA  &OP+1                                                    02900042
         AIF   (&OP GT N'&SYSLIST).DONE      TEST IF ALL DONE           02950042
&ITEMNBR SETA  &ITEMNBR+1                                               03000042
         AIF   ('&SYSLIST(&OP,2)' NE '').OK1                            03050042
         MNOTE '**NULL BIT COUNT FIELD**'                               03100042
         MEXIT                                                          03150042
.OK1     ANOP                                                           03200042
&SYMBOL  SETC  '&SYSLIST(&OP,1)'                                        03250042
         AIF   ('&SYMBOL' NE '').OK                                     03300042
*              *****     LOG ITEM SYMBOL NOT PROVIDED     *****         03350042
         AIF   ('&SYSLIST(&OP,3)' NE 'EQU').CNT                         03400042
         AGO   .START                   GET NEXT                        03450042
.OK      AIF   (N'&SYSLIST(&OP) LT 3).NO3    TEST FOR OLD FORMAT        03500042
         AIF   ('&SYSLIST(&OP,3)' EQ 'EQU').EQU   TEST FOR EQU          03550042
         AIF   (&ONLY1).OK2             TEST FOR ONLY ONE CONCAT        03600042
&SYMBOL  SETC  '&SYMBOL.&START1.&END1'       GET 1 AND 2 CONCAT         03650042
         AGO   .NO3                     BRANCH AROUND                   03700042
.OK2     ANOP                                                           03750042
&SYMBOL  SETC  '&SYMBOL.&START1'        GET 1 CONCATENATED              03800042
.NO3     ANOP                                                           03850042
&SYMBOL  EQU   *+&BYTE                                                  03900042
&ITEM(&ITEMNBR) SETC '&SYMBOL'          GET LABEL IN GLOBAL             03950042
&BITS(&ITEMNBR) SETA &SYSLIST(&OP,2)                                    04000042
&SHIFT(&ITEMNBR) SETA &COUNT-&BYTE*8                                    04050042
.CNT     ANOP                                                           04100042
&CTIND   SETB  1                        SET COUNT INDICATOR             04150042
&COUNT   SETA  &COUNT+&SYSLIST(&OP,2)                                   04200042
&BYTE    SETA  &COUNT/8                                                 04250042
         AIF   (N'&SYSLIST(&OP) LT 3).START  TEST FOR OLD FORMAT        04300042
         AIF   (&ONLY1).TSTST           TEST FOR ONLY ONE CONCAT        04350042
         AIF   (&END1 EQ &END2).TSTST   TEST FOR SECOND END             04400042
&END1    SETA  &END1+1                  INCREMENT COUNT                 04450042
&OP      SETA  &OP-1                    DECREMENT INCREMENT             04500042
         AGO   .LOOP                    GENERATE NEXT                   04550042
.TSTST   ANOP                                                           04600042
         AIF   (&START1 EQ &START2).LPDONE   TEST FOR END               04650042
         AIF   (&ONLY1).NSET1           TEST FOR ONLY ONE CONCAT        04700042
&END1    SETA  &SYSLIST(&OP,5)          RE-INIT SECOND START COUNT      04750042
.NSET1   ANOP                                                           04800042
&OP      SETA  &OP-1                    DECREMENT INDEX                 04850042
&START1  SETA  &START1+1                INCREMENT FIRST COUNT           04900042
         AGO   .LOOP                    GO DO NEXT                      04950042
.LPDONE  ANOP                                                           05000042
&ONLY1   SETB  0                        CLEAR INDICATOR                 05050042
         AGO   .START                   GO TEST FOR MORE SUB-LISTS      05100042
.DONE    AIF   (&COUNT-&COUNT/8*8 NE 0).ERR  TEST FOR MULTIPLE OF EIGHT 05150042
         AIF   (&CTIND EQ 0).END        NO DS IF NO COUNT               05200042
&COUNT   SETA  &COUNT/8                 GET NUMBER OF BYTES             05250042
&NAME    DS    &COUNT.C                                                 05300042
.END     MEXIT                                                          05350042
.ERR     MNOTE '**BIT COUNT FLDS DO NOT TOTAL MULTIPLE OF 8**'          05400042
         MEXIT                                                          05450042
.EQU     AIF   ('&SYSLIST(&OP,4)' NE '').EQU1     TEST FOR NULL LABEL   05500042
.ERR4    MNOTE '**EQU OPERAND OMITTED OR NOT FOUND**'                   05550042
         MEXIT                                                          05600042
.EQU1    AIF   (&SYSLIST(&OP,2) LT 16).EQU2  COUNT OVER FIFTEEN         05650042
*****               THE FOLLOWING STATEMENT                *****        05700042
*****     NUMBER OF BITS EXCEED 15 - DO NOT USE AS BIN     *****        05750042
.EQU2    ANOP                                                           05800042
&EQUCNT  SETA  0                        CLEAR COUNTER                   05850042
&EQUSYM  SETC  '&SYSLIST(&OP,4)'        GET EQU OPERAND                 05900042
.EQULOP  ANOP                                                           05950042
&EQUCNT  SETA  &EQUCNT+1                INCREMENT INDEX                 06000042
         AIF   ('&ITEM(&EQUCNT)' EQ '&EQUSYM').EQUOUT  LABEL FOUND?     06050042
         AIF   (&EQUCNT EQ &ITEMNBR).ERR4    ALL TESTED?                06100042
         AGO   .EQULOP                  NO-GET NEXT                     06150042
.EQUOUT  ANOP                                                           06200042
&ITEM(&ITEMNBR) SETC '&SYMBOL'          GET LABEL NAME                  06250042
&BITS(&ITEMNBR) SETA &SYSLIST(&OP,2)    GET NUMBER OF BITS              06300042
&SHIFT(&ITEMNBR) SETA &SHIFT(&EQUCNT)   GET SHIFT COUNT                 06350042
&SYMBOL  EQU   &EQUSYM                  THIS SYMBOL EQUATED             06400042
         AGO   .START                   RETURN FOR NEXT                 06450042
         MEND                                                           06500042
*                                                                       06550042
*********************************************************************** 06600042
* HEX MACRO  HEX MACRO  HEX MACRO  HEX MACRO  HEX MACRO  HEX MACRO      06650042
         MACRO                                                          06700042
         HEX   ,                                                        06750042
.*                            THIS MACRO FACILITATES GENERATION OF THE  06800042
.*                                 TABLE ENTRIES SPECIFYING HEX TYPE    06850042
.*                                 CONVERSIONS.                         06900042
.*                            &SYSLIST(&OP,1) - NAME OF DATA ITEM TO BE 06950042
.*                                 CONVERTED                            07000042
.*                            &SYSLIST(&OP,2) - # OF SPACES TO SKIP ON  07050042
.*                                 MULTIPLE PRINT OR NBR OF SPACES TO   07100042
.*                                 BACK UP FROM COLUMN FOR START OF     07150042
.*                                 PRINTING. THE LETTER B PRECEEDS THE  07200042
.*                                 NUMBER (B8) IF THE LATTER OPTION IS  07250042
.*                                 DESIRED. OMISSION OF THIS OPERAND    07300042
.*                                 FORCES OPTION 2 WITH BACKUP SPACING  07350042
.*                                 EQUAL TO THE NUMBER OF BYTES SPECI-  07400042
.*                                 FIED BY THE NEXT OPERAND (TWICE THIS 07450042
.*                                 NUMBER IF SUFFIX IS EXPLICITLY OR    07500042
.*                                 IMPLICITLY B).                       07550042
.*                            &SYSLIST(&OP,3) - NUMBER OF BYTES TO      07600042
.*                                 PROCESS. THIS NUMBER IS SUFFIXED     07650042
.*                                 WITH AN L,R, OR B TO STIPULATE       07700042
.*                                 PRINTING OF THE LEFT HALF, RIGHT     07750042
.*                                 HALF, OR BOTH HALVES OF THE BYTE     07800042
.*                                 RESPECTIVELY. OMISSION OF THIS       07850042
.*                                 OPERAND DEFAULTS TO B WITH THE NUM-  07900042
.*                                 BER OF BYTES EQUAL TO THE ITEM LNGTH 07950042
.*                            A NEW ENTRY IS GENERATED ONLY WHEN NECES- 08000042
.*                                 SARY. THIS MACRO MUST BE THE FIRST   08050042
.*                                 MACRO INSTRUCTION ISSUED FOR THE     08100042
.*                                 SUBJECT LINE(S).                     08150042
         GBLA  &BITS(2600),&DB,&DT,&INITIAL                             08200042
         GBLA  &ITEMITR,&ITEMFST(20),&ITEMNBR,&ITEMMDX                  08250042
         GBLA  &ITEMNDX(2600),&ITEMXPT                                  08300042
         GBLA  &LABELNR,&LASTCC,&LB,&LBLCTR(100),&LPTR,&LT              08350042
         GBLA  &NRENTS,&SHIFT(2600)                                     08400042
         GBLB  &DIAGITF,&DIAGLIN,&DIAGSET,&DIAGTST,&FSW,&TEST           08450042
         GBLC  &CARRCON,&CSECT,&DSECT,&ITEM(2600)                       08500042
         GBLC  &LABELS(2600),&LBL(100),&NRENTSX                         08550042
         LCLB  &B,&SUB                                                  08600042
         LCLA  &IBITS,&ISHIFT,&K,&T,&CODE,&BYTESP,&OP                   08650042
         LCLC  &S,&LETTER,&ARG                                          08700042
       ACTR  500000                                                     08750042
         AIF   (&DIAGTST EQ 0).NOMSG                                    08800042
         AIF   (&INITIAL EQ 0).NOMSG                                    08850042
         AIF   (&DIAGLIN EQ 1).NOMSG                                    08900042
         MNOTE '**NO LINE ASSOCIATED WITH THIS DATA**'                  08950042
*****THE FOLLOWING GENERATED FOR TEST PURPOSES*****                     09000042
*        LINE                                                           09050042
         LINE                                                           09100042
.NOMSG   ANOP                                                           09150042
         AIF   (K'&SYSLIST(1) EQ K'&SYSLIST(1,1)).LOOP                  09200042
&SUB     SETB  1                                                        09250042
.LOOP    ANOP                                                           09300042
&OP      SETA  &OP+1                                                    09350042
&ARG     SETC  '&SYSLIST(&OP,1)'                                        09400042
         ITEMFIND  &ARG                                                 09450042
         AIF   (&ITEMXPT EQ 0).MEXIT                                    09500042
.FOUND   ANOP                                                           09550042
&ISHIFT  SETA  &SHIFT(&ITEMXPT)                                         09600042
&IBITS   SETA  &BITS(&ITEMXPT)                                          09650042
         AIF   (&ISHIFT EQ 0 OR &ISHIFT EQ 4).ALIGN                     09700042
.ERR     MNOTE '**DATA NOT ALLIGNED ON HEX OR BYTE BOUNDARY**'          09750042
.MEXIT   MEXIT                                                          09800042
.ALIGN   ANOP                                                           09850042
&CODE    SETA  1                                                        09900042
         AIF   (&SUB EQ 1).SUBA                                         09950042
&K       SETA  K'&SYSLIST(3)                                            10000042
         AGO   .SUBB                                                    10050042
.SUBA    ANOP                                                           10100042
&K       SETA  K'&SYSLIST(&OP,3)                                        10150042
.SUBB    ANOP                                                           10200042
         AIF   (&K EQ 1).ERR3                                           10250042
         AIF   (&IBITS-(&IBITS/4)*4 EQ 0).OK                            10300042
         MNOTE '**BIT LENGTH SPECIFICATION INCONSISTENT WITH CONTROL**' 10350042
         MEXIT                                                          10400042
.OK      AIF   (&SUB EQ 1).SUBC                                         10450042
         AIF   ('&SYSLIST(3)' EQ '').USEDEFN                            10500042
&LETTER  SETC  '&SYSLIST(3)'(&K,1)                                      10550042
&S       SETC  '&SYSLIST(3)'(1,&K-1)                                    10600042
         AGO   .SUBD                                                    10650042
.SUBC    ANOP                                                           10700042
         AIF   ('&SYSLIST(&OP,3)' EQ '').USEDEFN                        10750042
&LETTER  SETC  '&SYSLIST(&OP,3)'(&K,1)                                  10800042
&S       SETC  '&SYSLIST(&OP,3)'(1,&K-1)                                10850042
.SUBD    ANOP                                                           10900042
&BYTESP  SETA  &S                                                       10950042
         AIF   ('&LETTER' EQ 'B').BOTH                                  11000042
         AIF   ('&LETTER' EQ 'L').LEFT                                  11050042
         AIF   ('&LETTER' EQ 'R').RIGHT                                 11100042
.ERR3    MNOTE '**PARAMETER 3 INCOMPLETE-DSGEN DEFINITION USED**'       11150042
         AGO   .USEDEFN                                                 11200042
.RIGHT   ANOP                                                           11250042
&CODE    SETA  2                                                        11300042
         AGO   .L                                                       11350042
.LEFT    ANOP                                                           11400042
&CODE    SETA  1                                                        11450042
         AGO   .L                                                       11500042
.USEDEFN ANOP                                                           11550042
&BYTESP  SETA  &IBITS/8                                                 11600042
.BOTH    AIF   (&ISHIFT NE 0).ERR                                       11650042
&CODE    SETA  3                                                        11700042
&T       SETA  &BYTESP*2-1                                              11750042
&S       SETC  '&T'                                                     11800042
.OK2     AIF   (&ISHIFT EQ 0).L                                         11850042
&CODE    SETA  2                                                        11900042
.L       ANOP                                                           11950042
&B       SETB  1                                                        12000042
         AIF   (&SUB EQ 1).SUBE                                         12050042
         AIF   ('&SYSLIST(2)' EQ '').BACKUP                             12100042
&K       SETA  K'&SYSLIST(2)                                            12150042
&B       SETB  ('&SYSLIST(2)'(1,1) EQ 'B')                              12200042
&S       SETC  '&SYSLIST(2)'(&B+1,&K-&B)                                12250042
         AGO   .SUBF                                                    12300042
.SUBE    ANOP                                                           12350042
         AIF   ('&SYSLIST(&OP,2)' EQ '').BACKUP                         12400042
&K       SETA  K'&SYSLIST(&OP,2)                                        12450042
&B       SETB  ('&SYSLIST(&OP,2)'(1,1) EQ 'B')                          12500042
&S       SETC  '&SYSLIST(&OP,2)'(&B+1,&K-&B)                            12550042
.SUBF    ANOP                                                           12600042
.BACKUP  ANOP                                                           12650042
&NRENTS  SETA  &NRENTS+1                                                12700042
         AIF   (&BYTESP GT 0 AND &BYTESP LT 16).SUB0                    12750042
         MNOTE '**NO. OF BYTES OUTSIDE RANGE OF 1-15**'                 12800042
         MEXIT                                                          12850042
.SUB0    AIF   (&SUB EQ 1).SUBG                                         12900042
         DC    AL.12(&SYSLIST(1)-&DSECT),XL.4'A'                        12950042
         AGO   .SUBH                                                    13000042
.SUBG    ANOP                                                           13050042
         DC    AL.12(&SYSLIST(&OP,1)-&DSECT),XL.4'A'                    13100042
.SUBH    ANOP                                                           13150042
         DC    BL.1'&B',FL.7'&S',AL.4(&BYTESP),FL.4'&CODE'              13200042
.OUT     ANOP                                                           13250042
&ITEMXPT     SETA  0                                                    13300042
         AIF   (&SUB EQ 0).OUTA                                         13350042
         AIF   (&OP LT N'&SYSLIST).LOOP                                 13400042
.OUTA    ANOP                                                           13450042
         MEND                                                           13500042
*                                                                       13550042
*********************************************************************** 13600042
* BIN MACRO  BIN MACRO  BIN MACRO  BIN MACRO  BIN MACRO  BIN MACRO      13650042
         MACRO                                                          13700042
         BIN   ,                                                        13750042
.*                                 &SYSLIST(&OP,1) - NAME OF LOG ITEM   13800042
.*                                      RECORD DSECT                    13850042
.*                                 $SYSLIST(&OP,2) - NBR OF SPACES      13900042
.*                                      TO SKIP ON MULTIPLE             13950042
.*                                      PRINT OR NBR OF SPACES          14000042
.*                                      TO BACK UP FROM COLUMN FOR      14050042
.*                                      START OF PRINTING. THE LETTER   14100042
.*                                      B PRECEEDS THE NUMBER (B5) IF   14150042
.*                                      THE LATTER IS DESIRED. OMISSION 14200042
.*                                      OF THIS OPERAND FORCES OPTION 2 14250042
.*                                      WITH BACKUP SPACING EQUAL TO    14300042
.*                                 THE NUMBER OF BITS IN THE ITEM       14350042
.*                                 DEFINITION (VIA MACRO 'DSGEN').      14400042
.*                            A LIMIT OF 15 BITS IS IMPOSED FOR THE     14450042
.*                                 TOTAL NUMBER OF BITS TO PRINT.       14500042
         GBLA  &BITS(2600),&DB,&DT,&INITIAL                             14550042
         GBLA  &ITEMITR,&ITEMFST(20),&ITEMNBR,&ITEMMDX                  14600042
         GBLA  &ITEMNDX(2600),&ITEMXPT                                  14650042
         GBLA  &LABELNR,&LASTCC,&LB,&LBLCTR(100),&LPTR,&LT              14700042
         GBLA  &NRENTS,&SHIFT(2600)                                     14750042
         GBLB  &DIAGITF,&DIAGLIN,&DIAGSET,&DIAGTST,&FSW,&TEST           14800042
         GBLC  &CARRCON,&CSECT,&DSECT,&ITEM(2600)                       14850042
         GBLC  &LABELS(2600),&LBL(100),&NRENTSX                         14900042
         LCLB  &B,&SUB                                                  14950042
         LCLA  &IBITS,&ISHIFT,&K                                        15000042
         LCLA  &TEMP,&T,&OP                                             15050042
         LCLC  &S,&ARG                                                  15100042
          ACTR  500000                                                  15150042
         AIF   (&DIAGTST EQ 0).NOMSG                                    15200042
         AIF   (&INITIAL EQ 0).NOMSG                                    15250042
         AIF   (&DIAGLIN EQ 1).NOMSG                                    15300042
         MNOTE '**NO LINE ASSOCIATED WITH THIS DATA**'                  15350042
*****THE FOLLOWING GENERATED FOR TEST PURPOSES*****                     15400042
*        LINE                                                           15450042
         LINE                                                           15500042
.NOMSG   ANOP                                                           15550042
         AIF   (K'&SYSLIST(1) EQ K'&SYSLIST(1,1)).LOOP                  15600042
&SUB     SETB  1                                                        15650042
.LOOP    ANOP                                                           15700042
&OP      SETA  &OP+1                                                    15750042
&ARG     SETC  '&SYSLIST(&OP,1)'                                        15800042
         ITEMFIND &ARG                                                  15850042
         AIF   (&ITEMXPT EQ 0).MEXIT                                    15900042
&ISHIFT  SETA  &SHIFT(&ITEMXPT)                                         15950042
&IBITS   SETA  &BITS(&ITEMXPT)                                          16000042
         AIF   (&SUB EQ 1).SUB00                                        16050042
         AIF   ('&SYSLIST(3)' EQ '').SETT                               16100042
&IBITS   SETA  &SYSLIST(3)                                              16150042
         AGO   .SETT                                                    16200042
.SUB00   AIF   ('&SYSLIST(&OP,3)' EQ '').SETT                           16250042
&IBITS   SETA  &SYSLIST(&OP,3)                                          16300042
.SETT    ANOP                                                           16350042
&T       SETA  &IBITS-1                                                 16400042
&B       SETB  0                                                        16450042
         AIF   (&IBITS GT 0 AND &IBITS LT 16).SUB0                      16500042
         MNOTE '**NO. OF BITS OUTSIDE RANGE OF 1-15**'                  16550042
.MEXIT   MEXIT                                                          16600042
.SUB0    AIF   (&SUB EQ 1).SUBA                                         16650042
         AIF   ('&SYSLIST(2)' EQ '').BACKUP                             16700042
&K       SETA  K'&SYSLIST(2)                                            16750042
&B       SETB  ('&SYSLIST(2)'(1,1) EQ 'B')                              16800042
&S       SETC  '&SYSLIST(2)'(&B+1,&K-&B)                                16850042
         AGO   .SUBB                                                    16900042
.SUBA    ANOP                                                           16950042
         AIF   ('&SYSLIST(&OP,2)' EQ '').BACKUP                         17000042
&K       SETA  K'&SYSLIST(&OP,2)                                        17050042
&B       SETB  ('&SYSLIST(&OP,2)'(1,1) EQ 'B')                          17100042
&S       SETC  '&SYSLIST(&OP,2)'(&B+1,&K-&B)                            17150042
.SUBB    ANOP                                                           17200042
&T       SETA  &S                                                       17250042
.BACKUP  ANOP                                                           17300042
&NRENTS  SETA  &NRENTS+1                                                17350042
&TEMP    SETA  &ISHIFT                                                  17400042
         AIF   (&IBITS NE 1 OR &B NE 0).BIN2                            17450042
         DC    AL.12(&SYSLIST(&OP,1)-&DSECT),XL.4'&TEMP'                17500042
         AGO   .OUT                                                     17550042
         AIF   (&SUB EQ 1).BIN2                                         17600042
         AIF   ('&SYSLIST(2)' NE '').BIN3                               17650042
         AGO   .BIN2A                                                   17700042
.BIN2    AIF   ('&SYSLIST(&OP,2)' NE '').BIN3                           17750042
.BIN2A   ANOP                                                           17800042
&B       SETB  1                                                        17850042
.BIN3    ANOP                                                           17900042
         DC    AL.12(&SYSLIST(&OP,1)-&DSECT),XL.4'C'                    17950042
         DC    BL.1'&B',AL.7(&T),AL.4(&IBITS),FL.4'&ISHIFT'             18000042
.OUT     ANOP                                                           18050042
&ITEMXPT     SETA  0                                                    18100042
         AIF   (&SUB EQ 0).OUTA                                         18150042
         AIF   (&OP LT N'&SYSLIST).LOOP                                 18200042
.OUTA    ANOP                                                           18250042
         MEND                                                           18300042
*                                                                       18350042
*********************************************************************** 18400042
* LINE MACRO  LINE MACRO  LINE MACRO  LINE MACRO  LINE MACRO LINE MACRO 18450042
         MACRO                                                          18500042