      TITLE   'IFCET005 27RN SUPPORT THIS IS CONTROL MOD'               00050002
         EJECT                                                          00100002
*  DSGEN MACRO     DSGEN MACRO     DSGEN MACRO     DSGEN MACRO        * 00150002
         SPACE 2                                                        00200002
*  DSGEN MACRO     DSGEN MACRO     DSGEN MACRO     DSGEN MACRO        * 00250002
         SPACE 2                                                        00300002
         MACRO                                                          00350002
&NAME    DSGEN                                                          00400002
.*                            THIS MACRO GENERATES ONE DSECT WORD       00450002
.*                                 FORMATTED FOR THE SUBJECT LOG RECORD 00500002
.*                                 EACH OPERAND HAS TWO SUB LISTS. THE  00550002
.*                                 FIRST IS THE NAME OF THE LOG ITEM    00600002
.*                                 WHILE THE SECOND IS THE # OF BITS TO 00650002
.*                                 ALLOCATE FOR THIS ITEM. ITEMS MUST   00700002
.*                                 BE DEFINED CONTIGUOUSLY WITHOUT GAPS 00750002
.*                                 UNUSED BIT GROUPS MUST BE GIVEN      00800002
.*                                 DUMMY NAMES. THE NAMES PROVIDED FOR  00850002
.*                                 THE LOG ITEMS MAY THEN BE USED IN    00900002
.*                                 THE CONVERSION MACRO INSTRUCTIONS.   00950002
         GBLC &ITEM(1000)                                               01000002
         GBLA &ITEMNBR,&BITS(1000),&SHIFT(1000)                         01050002
         LCLB  &ONLY1,&CTIND                                            01100002
         LCLA  &START1,&START2,&END1,&END2                              01150002
         LCLC  &SYMBOL,&EQUSYM                                          01200002
         LCLA  &OP,&COUNT,&BYTE,&EQUCNT                                 01250002
         ACTR  100000                                                   01300002
.START   AIF   (N'&SYSLIST(&OP+1) LT 3).LOOP                            01350002
         AIF   ('&SYSLIST(&OP+1,3)' EQ 'EQU').LOOP     TEST FOR EQU     01400002
  AIF   ('&SYSLIST(&OP+1,3)' EQ '' OR '&SYSLIST(&OP+1,4)' EQ '').ERR1   01450002
         AIF   ('&SYSLIST(&OP+1,3)' GT '&SYSLIST(&OP+1,4)').ERR3        01500002
&START1  SETA  &SYSLIST(&OP+1,3)        GET START COUNT OF 1            01550002
&START2  SETA  &SYSLIST(&OP+1,4)        GET FIRST END COUNT             01600002
         AGO   .SET2A                   BRANCH AROUND                   01650002
.ERR1    MNOTE '**FIRST SYMBOL CONCATENATION INCOMPLETE**'              01700002
         MEXIT                                                          01750002
.SET2A   AIF   ('&SYSLIST(&OP+1,5)' EQ ''AND '&SYSLIST(&OP+1,6)' EQ '' X01800002
               ).SET2                   TEST FOR NO SECOND              01850002
  AIF   ('&SYSLIST(&OP+1,5)' EQ '' OR '&SYSLIST(&OP+1,6)' EQ '').ERR2   01900002
         AIF   ('&SYSLIST(&OP+1,5)' GT '&SYSLIST(&OP+1,6)').ERR3        01950002
&END1    SETA  &SYSLIST(&OP+1,5)        GET START COUNT OF 2            02000002
&END2    SETA  &SYSLIST(&OP+1,6)        GET END COUNT OF 2              02050002
         AGO   .LOOP                                                    02100002
.SET2    ANOP                                                           02150002
&ONLY1   SETB  1                        INDICATE ONLY ONE CONCATENATION 02200002
         AGO   .LOOP                                                    02250002
.ERR2    MNOTE '**SECOND SYMBOL CONCATENATION INCOMPLETE**'             02300002
         MEXIT                                                          02350002
.ERR3    MNOTE '**START GREATER THAN END CONCATENATION**'               02400002
         MEXIT                                                          02450002
.LOOP    ANOP                                                           02500002
&OP      SETA  &OP+1                                                    02550002
         AIF   (&OP GT N'&SYSLIST).DONE      TEST IF ALL DONE           02600002
&ITEMNBR SETA  &ITEMNBR+1                                               02650002
         AIF   ('&SYSLIST(&OP,2)' NE '').OK1                            02700002
         MNOTE '**NULL BIT COUNT FIELD**'                               02750002
         MEXIT                                                          02800002
.OK1     ANOP                                                           02850002
&SYMBOL  SETC  '&SYSLIST(&OP,1)'                                        02900002
         AIF   ('&SYMBOL' NE '').OK                                     02950002
*              *****     LOG ITEM SYMBOL NOT PROVIDED     *****         03000002
         AIF   ('&SYSLIST(&OP,3)' NE 'EQU').CNT                         03050002
         AGO   .START                   GET NEXT                        03100002
.OK      AIF   (N'&SYSLIST(&OP) LT 3).NO3    TEST FOR OLD FORMAT        03150002
         AIF   ('&SYSLIST(&OP,3)' EQ 'EQU').EQU   TEST FOR EQU          03200002
         AIF   (&ONLY1).OK2             TEST FOR ONLY ONE CONCAT        03250002
&SYMBOL  SETC  '&SYMBOL.&START1.&END1'       GET 1 AND 2 CONCAT         03300002
         AGO   .NO3                     BRANCH AROUND                   03350002
.OK2     ANOP                                                           03400002
&SYMBOL  SETC  '&SYMBOL.&START1'        GET 1 CONCATENATED              03450002
.NO3     ANOP                                                           03500002
&SYMBOL  EQU   *+&BYTE                                                  03550002
&ITEM(&ITEMNBR) SETC '&SYMBOL'          GET LABEL IN GLOBAL             03600002
&BITS(&ITEMNBR) SETA &SYSLIST(&OP,2)                                    03650002
&SHIFT(&ITEMNBR) SETA &COUNT-&BYTE*8                                    03700002
.CNT     ANOP                                                           03750002
&CTIND   SETB  1                        SET COUNT INDICATOR             03800002
&COUNT   SETA  &COUNT+&SYSLIST(&OP,2)                                   03850002
&BYTE    SETA  &COUNT/8                                                 03900002
         AIF   (N'&SYSLIST(&OP) LT 3).START  TEST FOR OLD FORMAT        03950002
         AIF   (&ONLY1).TSTST           TEST FOR ONLY ONE CONCAT        04000002
         AIF   (&END1 EQ &END2).TSTST   TEST FOR SECOND END             04050002
&END1    SETA  &END1+1                  INCREMENT COUNT                 04100002
&OP      SETA  &OP-1                    DECREMENT INCREMENT             04150002
         AGO   .LOOP                    GENERATE NEXT                   04200002
.TSTST   ANOP                                                           04250002
         AIF   (&START1 EQ &START2).LPDONE   TEST FOR END               04300002
         AIF   (&ONLY1).NSET1           TEST FOR ONLY ONE CONCAT        04350002
&END1    SETA  &SYSLIST(&OP,5)          RE-INIT SECOND START COUNT      04400002
.NSET1   ANOP                                                           04450002
&OP      SETA  &OP-1                    DECREMENT INDEX                 04500002
&START1  SETA  &START1+1                INCREMENT FIRST COUNT           04550002
         AGO   .LOOP                    GO DO NEXT                      04600002
.LPDONE  ANOP                                                           04650002
&ONLY1   SETB  0                        CLEAR INDICATOR                 04700002
         AGO   .START                   GO TEST FOR MORE SUB-LISTS      04750002
.DONE    AIF   (&COUNT-&COUNT/8*8 NE 0).ERR  TEST FOR MULTIPLE OF EIGHT 04800002
         AIF   (&CTIND EQ 0).END        NO DS IF NO COUNT               04850002
&COUNT   SETA  &COUNT/8                 GET NUMBER OF BYTES             04900002
&NAME    DS    &COUNT.C                                                 04950002
.END     MEXIT                                                          05000002
.ERR     MNOTE '**BIT COUNT FLDS DO NOT TOTAL MULTIPLE OF 8**'          05050002
         MEXIT                                                          05100002
.EQU     AIF   ('&SYSLIST(&OP,4)' NE '').EQU1     TEST FOR NULL LABEL   05150002
.ERR4    MNOTE '**EQU OPERAND OMITTED OR NOT FOUND**'                   05200002
         MEXIT                                                          05250002
.EQU1    AIF   (&SYSLIST(&OP,2) LT 16).EQU2  COUNT OVER FIFTEEN         05300002
*****               THE FOLLOWING STATEMENT                *****        05350002
*****     NUMBER OF BITS EXCEED 15 - DO NOT USE AS BIN     *****        05400002
.EQU2    ANOP                                                           05450002
&EQUCNT  SETA  0                        CLEAR COUNTER                   05500002
&EQUSYM  SETC  '&SYSLIST(&OP,4)'        GET EQU OPERAND                 05550002
.EQULOP  ANOP                                                           05600002
&EQUCNT  SETA  &EQUCNT+1                INCREMENT INDEX                 05650002
         AIF   ('&ITEM(&EQUCNT)' EQ '&EQUSYM').EQUOUT  LABEL FOUND?     05700002
         AIF   (&EQUCNT EQ &ITEMNBR).ERR4    ALL TESTED?                05750002
         AGO   .EQULOP                  NO-GET NEXT                     05800002
.EQUOUT  ANOP                                                           05850002
&ITEM(&ITEMNBR) SETC '&SYMBOL'          GET LABEL NAME                  05900002
&BITS(&ITEMNBR) SETA &SYSLIST(&OP,2)    GET NUMBER OF BITS              05950002
&SHIFT(&ITEMNBR) SETA &SHIFT(&EQUCNT)   GET SHIFT COUNT                 06000002
&SYMBOL  EQU   &EQUSYM                  THIS SYMBOL EQUATED             06050002
         AGO   .START                   RETURN FOR NEXT                 06100002
         MEND                                                           06150002
         EJECT                                                          06200002
         MACRO                                                          06250002
         LINEND                                                         06300002
.*                            THIS MACRO IS USED ONLY BY THE LINE       06350002
.*                                 MACRO TO SET THE NUMBER OF ENTRIES   06400002
.*                                 ASSOCIATED WITH EACH LINE.           06450002
         GBLA  &NRENTS                                                  06500002
         GBLC &NRENTSX                                                  06550002
         AIF   (&NRENTS EQ 0).NORENTS   TEST FOR NO COUNT               06600002
         ORG   &NRENTSX                                                 06650002
         DC    FL1'&NRENTS'                                             06700002
         ORG                                                            06750002
&NRENTS  SETA  0                                                        06800002
.NORENTS ANOP                                                           06850002
B&SYSNDX EQU   *                                                        06900002
&NRENTSX SETC  'B&SYSNDX'                                               06950002
         MEND                                                           07000002
         EJECT                                                          07050002
         MACRO                                                          07100002
         BIN                                                            07150002
.*                                 &SYSLIST(&OP,1) - NAME OF LOG ITEM   07200002
.*                                      RECORD DSECT                    07250002
.*                                 $SYSLIST(&OP,2) - NBR OF SPACES      07300002
.*                                      TO SKIP ON MULTIPLE             07350002
.*                                      PRINT OR NBR OF SPACES          07400002
.*                                      TO BACK UP FROM COLUMN FOR      07450002
.*                                      START OF PRINTING. THE LETTER   07500002
.*                                      B PRECEEDS THE NUMBER (B5) IF   07550002
.*                                      THE LATTER IS DESIRED. OMISSION 07600002
.*                                      OF THIS OPERAND FORCES OPTION 2 07650002
.*                                      WITH BACKUP SPACING EQUAL TO    07700002
.*                                 THE NUMBER OF BITS IN THE ITEM       07750002
.*                                 DEFINITION (VIA MACRO 'DSGEN').      07800002
.*                            A LIMIT OF 15 BITS IS IMPOSED FOR THE     07850002
.*                                 TOTAL NUMBER OF BITS TO PRINT.       07900002
         GBLA  &INITIAL                                                 07950002
         GBLB  &DIAGTST,&DIAGSET,&DIAGLIN                               08000002
         GBLC &ITEM(1000)                                               08050002
         GBLA &ITEMNBR,&BITS(1000),&SHIFT(1000),&NRENTS                 08100002
         GBLC  &DSECT                                                   08150002
         LCLB  &B,&SUB                                                  08200002
         LCLA  &IBITS,&NDX,&ISHIFT,&K                                   08250002
         LCLA  &TEMP,&T,&OP                                             08300002
         LCLC  &S                                                       08350002
         AIF   (&DIAGTST EQ 0).NOMSG                                    08400002
         AIF   (&INITIAL EQ 0).NOMSG                                    08450002
         AIF   (&DIAGLIN EQ 1).NOMSG                                    08500002
         MNOTE '**NO LINE ASSOCIATED WITH THIS DATA**'                  08550002
*****THE FOLLOWING GENERATED FOR TEST PURPOSES*****                     08600002
*        LINE                                                           08650002
         LINE                                                           08700002
.NOMSG   ANOP                                                           08750002
         AIF   (K'&SYSLIST(1) EQ K'&SYSLIST(1,1)).LOOP                  08800002
&SUB     SETB  1                                                        08850002
.LOOP    ANOP                                                           08900002
&OP      SETA  &OP+1                                                    08950002
.LOOP1   ANOP                                                           09000002
&NDX     SETA  &NDX+1                                                   09050002
         AIF   ('&ITEM(&NDX)' EQ '&SYSLIST(&OP,1)').FOUND               09100002
         AIF   (&NDX LT &ITEMNBR).LOOP1                                 09150002
         MNOTE '**LOG ITEM NOT DEFINED**'                               09200002
         MEXIT                                                          09250002
.FOUND   ANOP                                                           09300002
&ISHIFT  SETA  &SHIFT(&NDX)                                             09350002
&IBITS   SETA  &BITS(&NDX)                                              09400002
&T       SETA  &IBITS-1                                                 09450002
&B       SETB  0                                                        09500002
         AIF   (&IBITS GT 0 AND &IBITS LT 16).SUB0                      09550002
         MNOTE '**NO. OF BITS OUTSIDE RANGE OF 1-15**'                  09600002
         MEXIT                                                          09650002
.SUB0    AIF   (&SUB EQ 1).SUBA                                         09700002
         AIF   ('&SYSLIST(2)' EQ '').BACKUP                             09750002
&K       SETA  K'&SYSLIST(2)                                            09800002
&B       SETB  ('&SYSLIST(2)'(1,1) EQ 'B')                              09850002
&S       SETC  '&SYSLIST(2)'(&B+1,&K-&B)                                09900002
         AGO   .SUBB                                                    09950002
.SUBA    ANOP                                                           10000002
         AIF   ('&SYSLIST(&OP,2)' EQ '').BACKUP                         10050002
&K       SETA  K'&SYSLIST(&OP,2)                                        10100002
&B       SETB  ('&SYSLIST(&OP,2)'(1,1) EQ 'B')                          10150002
&S       SETC  '&SYSLIST(&OP,2)'(&B+1,&K-&B)                            10200002
.SUBB    ANOP                                                           10250002
&T       SETA  &S                                                       10300002
.BACKUP  ANOP                                                           10350002
&NRENTS  SETA  &NRENTS+1                                                10400002
&TEMP    SETA  &ISHIFT                                                  10450002
         AIF   (&IBITS NE 1 OR &B NE 0).BIN2                            10500002
         DC    AL.12(&SYSLIST(&OP,1)-&DSECT),XL.4'&TEMP'                10550002
         AGO   .OUT                                                     10600002
.BIN2    AIF   ('&SYSLIST(&OP,2)' NE '').BIN3                           10650002
&B       SETB  1                                                        10700002
.BIN3    ANOP                                                           10750002
         DC    AL.12(&SYSLIST(&OP,1)-&DSECT),XL.4'C'                    10800002
         DC    BL.1'&B',AL.7(&T),AL.4(&IBITS),FL.4'&ISHIFT'             10850002
.OUT     ANOP                                                           10900002
&NDX     SETA  0                                                        10950002
         AIF   (&SUB EQ 0).OUTA                                         11000002
         AIF   (&OP LT N'&SYSLIST).LOOP                                 11050002
.OUTA    ANOP                                                           11100002
         MEND                                                           11150002
         EJECT                                                          11200002
         MACRO                                                          11250002
         LSTART                                                         11300002
.*                            THIS MACRO IS ISSUED WHEN THE LABEL AREA  11350002
.*                                 OF THE TABLE IS TO BEGIN.            11400002
         GBLA  &LABELNR                                                 11450002
         GBLC  &LBL(100)                                                11500002
         GBLC &LABELS(2000)                                             11550002
         GBLA  &LBLCTR(100)                                             11600002
         GBLB  &DIAGTST,&DIAGSET,&DIAGLIN                               11650002
         LCLA  &NDX,&CTR                                                11700002
         AIF   (&DIAGTST EQ 0).NODIAG                                   11750002
         AIF   (&DIAGSET EQ 0).NODIAG                                   11800002
         MNOTE '**NO LABEL ASSOCIATED WITH LAST SET**'                  11850002
***** THE FOLLOWING GENERATED FOR TEST PURPOSES *****                   11900002
*        LABEL '%%%%%%%%%%%%%%%%%%%%%%%%%%%%%%%%%%%%%%%%%%%%%%%%'       11950002
               LABEL '%%%%%%%%%%%%%%%%%%%%%%%%%%%%%%%%%%%%%%%%%%%%%%%%' 12000002
.NODIAG  ANOP                                                           12050002
         LINEND                                                         12100002
&CTR     SETA  1                                                        12150002
.LOOP    ANOP                                                           12200002
&NDX     SETA  &NDX+1                                                   12250002
         AIF   (&LBLCTR(&CTR) NE &NDX).NOLBL                            12300002
&LBL(&CTR) DC  C'&LABELS(&NDX)'                                         12350002
&CTR     SETA  &CTR+1                                                   12400002
         AGO   .LOOPCTL                                                 12450002
.NOLBL   ANOP                                                           12500002
         DC    C'&LABELS(&NDX)'                                         12550002
.LOOPCTL AIF   (&NDX LT &LABELNR).LOOP                                  12600002
         MEND                                                           12650002
         EJECT                                                          12700002
         MACRO                                                          12750002
&NAME    ROUTINE &LOGITEM,&RNAME                                        12800002
         GBLA  &NRENTS                                                  12850002
         GBLC  &DSECT,&CSECT                                            12900002
         GBLA  &INITIAL                                                 12950002
         GBLB  &DIAGTST,&DIAGSET,&DIAGLIN                               13000002
         AIF   (&DIAGTST EQ 0).NOMSG                                    13050002
         AIF   (&INITIAL EQ 0).NOMSG                                    13100002
         AIF   (&DIAGLIN EQ 1).NOMSG                                    13150002
         MNOTE '**NO LINE ASSOCIATED WITH THIS ROUTINE**'               13200002
*****THE FOLLOWING GENERATED FOR TEST PURPOSES*****                     13250002
*        LINE                                                           13300002
         LINE                                                           13350002
.NOMSG   ANOP                                                           13400002
&NAME    DC    AL.12(&LOGITEM-&DSECT),XL.4'D'                           13450002
         DC    AL2(&RNAME-&CSECT)                                       13500002
&NRENTS  SETA  &NRENTS+1                                                13550002
         MEND                                                           13600002
         EJECT                                                          13650002
         MACRO                                                          13700002
&NAME    LINE  &DATA,&LABEL,&SKIP=                                      13750002
.*                            THIS MACRO ESTABLISHES THE MARGINS OR     13800002
.*                                 COLUMN SETTINGS FOR EACH LINE. IT    13850002
.*                                 GENERATES NECESSARY CARRIAGE CONTROL 13900002
.*                                 ENTRIES. LASTLY IT DETERMINES THE    13950002
.*                                 NUMBER OF ENTRIES ASSOCIATED WITH    14000002
.*                                 THE PREVIOUS LINE AND STORES THAT #  14050002
.*                                 INTO THE APPROPRIATE BYTE.           14100002
.*                            &DATA(1) - CHARACTER POSITION TO BEGIN    14150002
.*                                 DATA.                                14200002
.*                            &DATA(2) - # OF SPACES BETWEEN SUCCESSIVE 14250002
.*                                 DATA COLUMN STARTING CHARACTERS.     14300002
.*                            &LABEL(1) - CHAR. POS. TO BEGIN LABELS.   14350002
.*                            &LABEL(2) - # SPACES BETWEEN LINE'S LABEL 14400002
.*                                 STARTING CHARACTERS.                 14450002
.*                            &SKIP= - # OF LINES TO ADVANCE CARRIAGE   14500002
.*                                 TO BEGIN NEXT PRINTED LINE.          14550002
.*                            NEW ENTRIES ARE GENERATED ONLY WHEN       14600002
.*                                 NECESSARY. OMISSION OF ITEMS MEANS   14650002
.*                                 THEY HAVE NOT CHANGED SINCE PREVIOUS 14700002
.*                                 SETTINGS. A LINE MACRO IS REQUIRED   14750002
.*                                 FOR EACH PRINTED LINE. IF NO SETTING 14800002
.*                                 CHANGES ARE REQUIRED ALL OPERANDS    14850002
.*                                 ARE OMITTED IN WHICH CASE ONLY THE   14900002
.*                                 # OF ENTRIES FOR THE PREVIOUS LINE   14950002
.*                                 IS COMPUTED. THIS MACRO MUST BE THE  15000002
.*                                 FIRST MACRO INSTRUCTION ISSUED FOR   15050002
.*                                 THE SUBJECT LINE                     15100002
         GBLA  &DB,&DT,&LB,&LT,&NRENTS                                  15150002
         GBLA  &LASTCC,&INITIAL                                         15200002
         GBLC  &NRENTSX                                                 15250002
         GBLC  &CARRCON                                                 15300002
         GBLB  &TEST                                                    15350002
         GBLB  &DIAGTST,&DIAGSET,&DIAGLIN                               15400002
         LCLA  &S                                                       15450002
         AIF   (&INITIAL EQ 0 OR &DIAGTST EQ 0).DIAGSET                 15500002
         AIF   (&DIAGSET EQ 0).DIAGSET                                  15550002
         MNOTE '**NO LABEL ASSOCIATED WITH LAST SET**'                  15600002
***** THE FOLLOWING GENERATED FOR TEST PURPOSES *****                   15650002
*        LABEL '%%%%%%%%%%%%%%%%%%%%%%%%%%%%%%%%%%%%%%%%%%%%%%%%'       15700002
               LABEL '%%%%%%%%%%%%%%%%%%%%%%%%%%%%%%%%%%%%%%%%%%%%%%%%' 15750002
.DIAGSET ANOP                                                           15800002
&DIAGSET SETB  1                                                        15850002
&DIAGLIN SETB  1                                                        15900002
&NAME    DS    0C                                                       15950002
         AIF   (&INITIAL EQ 0).FIRSTLN                                  16000002
         LINEND                                                         16050002
         AGO   .NTFIRST                                                 16100002
.FIRSTLN ANOP                                                           16150002
&NRENTSX SETC  'N&SYSNDX'                                               16200002
&INITIAL SETA  1                                                        16250002
N&SYSNDX EQU   *                                                        16300002
.NTFIRST ANOP                                                           16350002
         DC    AL1(0)                                                   16400002
         AIF   ('&DATA(1)' EQ '').CKDTABS                               16450002
         AIF   (&DATA(1) EQ &DB).CKDTABS                                16500002
&DB      SETA  &DATA(1)                                                 16550002
         AGO   .AA                                                      16600002
.CKDTABS AIF   ('&DATA(2)' EQ '').NCDATA                                16650002
         AIF   (&DATA(2) EQ &DT).NCDATA                                 16700002
         AGO   .CC                                                      16750002
.AA      AIF   ('&DATA(2)' EQ '').BB                                    16800002
         AIF   (&DATA(2) EQ &DT).BB                                     16850002
.CC      ANOP                                                           16900002
&DT      SETA  &DATA(2)                                                 16950002
.BB      DC    XL2'FFFE'                                                17000002
         DC    FL1'&DB'                                                 17050002
         DC    FL1'&DT'                                                 17100002
&NRENTS  SETA  &NRENTS+1                                                17150002
.NCDATA  ANOP                                                           17200002
         AIF   ('&LABEL(1)' EQ '').CKLTABS                              17250002
         AIF   (&LABEL(1) EQ &LB).CKLTABS                               17300002
&LB      SETA  &LABEL(1)                                                17350002
         AGO   .AAA                                                     17400002
.CKLTABS AIF   ('&LABEL(2)' EQ '').NCLABEL                              17450002
         AIF   (&LABEL(2) EQ &LT).NCLABEL                               17500002
         AGO   .CCC                                                     17550002
.AAA     AIF   ('&LABEL(2)' EQ '').BBB                                  17600002
         AIF   (&LABEL(2) EQ &LT).BBB                                   17650002
.CCC     ANOP                                                           17700002
&LT      SETA  &LABEL(2)                                                17750002
.BBB     DC    XL2'FFFF'                                                17800002
         DC    FL1'&LB'                                                 17850002
         DC    FL1'&LT'                                                 17900002
&NRENTS  SETA  &NRENTS+1                                                17950002
.NCLABEL ANOP                                                           18000002
         AIF   ('&SKIP' NE '').CONT                                     18050002
         AIF   (&TEST EQ 0).NOCHANG                                     18100002
         AGO   .DEFALTA                                                 18150002
.CONT    ANOP                                                           18200002
         AIF   (&TEST EQ 0).AB                                          18250002
         AIF   ('&SKIP' EQ 'E').AB                                      18300002
&S       SETA  &SKIP                                                    18350002
.DEFAULT ANOP                                                           18400002
         AIF   (&SKIP EQ &LASTCC).DEFALTA                               18450002
         ORG   &CARRCON+3                                               18500002