         TITLE 'IFCEXXX3 - EDIT TABLE - LINKNAME=IFCE1443, ALIASES=IFCEC00075002
               1419,IFCE1275,IFCE1285,IFCE2671'                         00150002
         SPACE 2                                                        00225002
*  LINE MACRO     LINE MACRO     LINE MACRO     LINE MACRO            * 00300002
         MACRO                                                          00375002
&NAME    LINE  &DATA,&LABEL,&SKIP=                                      00450002
.*                            THIS MACRO ESTABLISHES THE MARGINS OR     00525002
.*                                 COLUMN SETTINGS FOR EACH LINE. IT    00600002
.*                                 GENERATES NECESSARY CARRIAGE CONTROL 00675002
.*                                 ENTRIES. LASTLY IT DETERMINES THE    00750002
.*                                 NUMBER OF ENTRIES ASSOCIATED WITH    00825002
.*                                 THE PREVIOUS LINE AND STORES THAT #  00900002
.*                                 INTO THE APPROPRIATE BYTE.           00975002
.*                                 &DATA(1) - CHARACTER POSITION TO     01050002
.*                                 BEGIN DATA.                          01125002
.*                                                                      01200002
.*                                 &DATA(2) - # OF SPACES BETWEEN       01275002
.*                                 SUCCESSIVE DATA COLUMN STARTING      01350002
.*                                 CHARACTERS.                          01425002
.*                                                                      01500002
.*                                 &LABEL(1) - CHARACTER POSITION       01575002
.*                                 TO BEGIN LABELS.                     01650002
.*                                                                      01725002
.*                                 &LABEL(2) - # OF SPACES BETWEEN      01800002
.*                                 LINE'S LABEL STARTING CHARACTERS.    01875002
.*                                                                      01950002
.*                                 &SKIP= - # OF LINES TO ADVANCE       02025002
.*                                 CARRIAGE TO BEGIN NEXT PRINTED LINE. 02100002
.*                                                                      02175002
.*                                 NEW ENTRIES ARE GENERATED ONLY WHEN  02250002
.*                                 NECESSARY. OMISSION OF ITEMS MEANS   02325002
.*                                 THEY HAVE NOT CHANGED SINCE PREVIOUS 02400002
.*                                 SETTINGS. A LINE MACRO IS REQUIRED   02475002
.*                                 FOR EACH PRINTED LINE. IF NO SETTING 02550002
.*                                 CHANGES ARE REQUIRED ALL OPERANDS    02625002
.*                                 ARE OMITTED IN WHICH CASE ONLY THE   02700002
.*                                 # OF ENTRIES FOR THE PREVIOUS LINE   02775002
.*                                 FIRST MACRO INSTRUCTION ISSUED FOR   02850002
.*                                 THE SUBJECT LINE.                    02925002
         GBLA  &DB,&DT,&LB,&LT,&NRENTS                                  03000002
         GBLA  &LASTCC,&INITIAL                                         03075002
         GBLC  &NRENTSX                                                 03150002
         GBLC  &CARRCON                                                 03225002
         GBLB  &TEST                                                    03300002
         LCLA  &S                                                       03375002
&NAME    DS    0C                                                       03450002
         AIF   (&INITIAL EQ 0).FIRSTLN                                  03525002
         LINEND                                                         03600002
         AGO   .NTFIRST                                                 03675002
.FIRSTLN ANOP                                                           03750002
&NRENTSX SETC  'N&SYSNDX'                                               03825002
&INITIAL SETA  1                                                        03900002
&LASTCC  SETA  1                                                        03975002
N&SYSNDX EQU   *                                                        04050002
.NTFIRST ANOP                                                           04125002
         DC    AL1(0)                                                   04200002
         AIF   ('&DATA(1)' EQ '').CKDTABS                               04275002
         AIF   ('&DATA'(1,1) NE '(').SLABEL                             04350002
         AIF   (&DATA(1) EQ &DB).CKDTABS                                04425002
&DB      SETA  &DATA(1)                                                 04500002
         AGO   .AA                                                      04575002
.CKDTABS AIF   ('&DATA(2)' EQ '').NCDATA                                04650002
         AIF   (&DATA(2) EQ &DT).NCDATA                                 04725002
         AGO   .CC                                                      04800002
.AA      AIF   ('&DATA(2)' EQ '').BB                                    04875002
         AIF   (&DATA(2) EQ &DT).BB                                     04950002
.CC      ANOP                                                           05025002
&DT      SETA  &DATA(2)                                                 05100002
.BB      DC    XL2'FFFE'                                                05175002
         DC    FL1'&DB'                                                 05250002
         DC    FL1'&DT'                                                 05325002
&NRENTS  SETA  &NRENTS+1                                                05400002
.NCDATA  ANOP                                                           05475002
         AIF   ('&LABEL(1)' EQ '').CKLTABS                              05550002
         AIF   ('&LABEL'(1,1) NE '(').SLABEL                            05625002
         AIF   (&LABEL(1) EQ &LB).CKLTABS                               05700002
&LB      SETA  &LABEL(1)                                                05775002
         AGO   .AAA                                                     05850002
.CKLTABS AIF   ('&LABEL(2)' EQ '').NCLABEL                              05925002
         AIF   (&LABEL(2) EQ &LT).NCLABEL                               06000002
         AGO   .CCC                                                     06075002
.AAA     AIF   ('&LABEL(2)' EQ '').BBB                                  06150002
         AIF   (&LABEL(2) EQ &LT).BBB                                   06225002
.CCC     ANOP                                                           06300002
&LT      SETA  &LABEL(2)                                                06375002
.BBB     DC    XL2'FFFF'                                                06450002
         DC    FL1'&LB'                                                 06525002
         DC    FL1'&LT'                                                 06600002
&NRENTS  SETA  &NRENTS+1                                                06675002
.NCLABEL ANOP                                                           06750002
         AIF   ('&SKIP' EQ 'E').EJECT                                   06825002
         AIF   ('&SKIP' EQ '').TESTOFF                                  06900002
.CONT    ANOP                                                           06975002
         AIF   (&TEST EQ 0).AB                                          07050002
         AIF   (&SKIP EQ &LASTCC).TESTOFF                               07125002
&S       SETA  &SKIP                                                    07200002
         ORG   &CARRCON+3                                               07275002
         DC    AL.3(0),AL.2(&S),AL.3(1)                                 07350002
         ORG                                                            07425002
&LASTCC  SETA  &S                                                       07500002
.SLABEL  ANOP                                                           07575002
.TESTOFF ANOP                                                           07650002
&TEST    SETB  0                                                        07725002
         AGO   .DD                                                      07800002
.EJECT   DC    XL2'FFFB'                                                07875002
&NRENTS  SETA  &NRENTS+1                                                07950002
         DC    X'8B'              SKIP TO CHANNEL 1                     08025002
         DC    AL.3(0),AL.2(&LASTCC),AL.3(1)                            08100002
&TEST    SETB  1                                                        08175002
         AGO   .DD                                                      08250002
.AB      AIF   (&SKIP EQ &LASTCC).NOCHANG                               08325002
A&SYSNDX DC    XL2'FFFB'                                                08400002
         DC    AL.3(0),AL.2(&SKIP),AL.3(1)                              08475002
         DC    AL.3(0),AL.2(&SKIP),AL.3(1)                              08550002
&LASTCC  SETA  &SKIP                                                    08625002
&TEST    SETB  1                                                        08700002
&CARRCON SETC  'A&SYSNDX'                                               08775002
&NRENTS  SETA  &NRENTS+1                                                08850002
.DD      ANOP                                                           08925002
.NOCHANG ANOP                                                           09000002
         MEND                                                           09075002
         EJECT                                                          09150002
         SPACE 2                                                        09225002
*  ROUTINE MACRO     ROUTINE MACRO     ROUTINE MACRO     ROUTINE MACRO* 09300002
         MACRO                                                          09375002
&NAME    ROUTINE &LOGITEM,&RNAME                                        09450002
         GBLC  &DSECT,&CSECT                                            09525002
         GBLC  &ITEM(1000)                                              09600002
         GBLA  &SHIFT(1000),&ITEMNBR                                    09675002
         GBLA  &NRENTS                                                  09750002
         LCLA  &ISHIFT,&NDX                                             09825002
.LOOP    ANOP                                                           09900002
&NDX     SETA  &NDX+1                                                   09975002
         AIF   ('&ITEM(&NDX)' EQ '&LOGITEM').FOUND                      10050002
         AIF   (&NDX LT &ITEMNBR).LOOP                                  10125002
         MNOTE *,'LOG ITEM NOT DEFINED'                                 10200002
         MEXIT                                                          10275002
.FOUND   ANOP                                                           10350002
&ISHIFT  SETA  &SHIFT(&NDX)                                             10425002
&NAME    DC    AL.12(&LOGITEM-&DSECT),XL.4'D'                           10500002
         DC    AL.4(&ISHIFT),AL.12(&RNAME-&CSECT)                       10575002
&NRENTS  SETA  &NRENTS+1                                                10650002
         MEND                                                           10725002
*  DSGEN MACRO     DSGEN MACRO     DSGEN MACRO     DSGEN MACRO        * 10800002
         SPACE 2                                                        10875002
         MACRO                                                          10950002
&NAME    DSGEN &X1,&X2,&X3,&X4,&X5,&X6,&X7,&X8,&X9,&X10,&X11,&X12,&X13,X11025002
               &X14,&X15,&X16,&X17,&X18,&X19,&X20,&X21,&X22,&X23,&X24, X11100002
               &X25,&X26,&X27,&X28,&X29,&X30,&X31,&X32                  11175002
.*                            THIS MACRO GENERATES ONE DSECT WORD       11250002
.*                                 FORMATTED FOR THE SUBJECT LOG RECORD 11325002
.*                                 EACH OPERAND HAS TWO SUB LISTS. THE  11400002
.*                                 FIRST IS THE NAME OF THE LOG ITEM    11475002
.*                                 WHILE THE SECOND IS THE # OF BITS TO 11550002
.*                                 ALLOCATE FOR THIS ITEM. ITEMS MUST   11625002
.*                                 BE DEFINED CONTIGUOUSLY WITHOUT GAPS 11700002
.*                                 UNUSED BIT GROUPS MUST BE GIVEN      11775002
.*                                 DUMMY NAMES. THE NAMES PROVIDED FOR  11850002
.*                                 THE LOG ITEMS MAY THEN BE USED IN    11925002
.*                                 THE CONVERSION MACRO INSTRUCTIONS.   12000002
         GBLC &ITEM(1000)                                               12075002
         GBLA &ITEMNBR,&BITS(1000),&SHIFT(1000)                         12150002
         LCLC  &SYMBOL                                                  12225002
         LCLA  &OP,&COUNT,&BYTE                                         12300002
.LOOP    ANOP                                                           12375002
&OP      SETA  &OP+1                                                    12450002
&ITEMNBR SETA  &ITEMNBR+1                                               12525002
&SYMBOL  SETC  '&SYSLIST(&OP,1)'                                        12600002
         AIF   ('&SYSLIST(&OP,2)' NE '').OK1                            12675002
         MNOTE *,'NULL BIT COUNT FIELD'                                 12750002
         MEXIT                                                          12825002
.OK1     ANOP                                                           12900002
         AIF   ('&SYMBOL' NE '').OK                                     12975002
         MNOTE 'LOG ITEM SYMBOL NOT PROVIDED'                           13050002
         AGO   .CNT                                                     13125002
.OK      ANOP                                                           13200002
         AIF   ('&SYMBOL'(1,1) EQ '''').CNT                *TEMP*       13275002
&SYMBOL  EQU   *+&BYTE                                                  13350002
&ITEM(&ITEMNBR)  SETC '&SYSLIST(&OP,1)'                                 13425002
&BITS(&ITEMNBR) SETA &SYSLIST(&OP,2)                                    13500002
&SHIFT(&ITEMNBR) SETA &COUNT-&BYTE*8                                    13575002
.CNT     ANOP                                                           13650002
&COUNT   SETA  &COUNT+&SYSLIST(&OP,2)                                   13725002
&BYTE    SETA  &COUNT/8                                                 13800002
         AIF (&OP LT N'&SYSLIST).LOOP                                   13875002
         AIF   (&COUNT NE 32).NOT32                                     13950002
&NAME    DS    4C                                                       14025002
         MEXIT                                                          14100002
.NOT32   AIF   (&COUNT NE 64).ERR                                       14175002
&NAME    DS    8C                                                       14250002
         MEXIT                                                          14325002
.ERR     MNOTE '**BIT COUNT FIELDS DO NOT TOTAL 32 OR 64**'             14400002
         MEND                                                           14475002
         MACRO                                                          14550002
         LINEND                                                         14625002
.*                            THIS MACRO IS USED ONLY BY THE LINE       14700002
.*                                 MACRO TO SET THE NUMBER OF ENTRIES   14775002
.*                                 ASSOCIATED WITH EACH LINE.           14850002
         GBLA  &NRENTS                                                  14925002
         GBLC &NRENTSX                                                  15000002
         ORG   &NRENTSX                                                 15075002
         DC    FL1'&NRENTS'                                             15150002
         ORG                                                            15225002
&NRENTS  SETA  0                                                        15300002
B&SYSNDX EQU   *                                                        15375002
&NRENTSX SETC  'B&SYSNDX'                                               15450002
         MEND                                                           15525002
         SPACE 2                                                        15600002
         EJECT                                                          15675002
*  LABEL MACRO     LABEL MACRO     LABEL MACRO     LABEL MACRO        * 15750002
         SPACE 2                                                        15825002
         MACRO                                                          15900002
&NAME    LABEL &LABEL1,&LABEL2,&LABEL3,&LABEL4,&LABEL5,&LABEL6,        C15975002
               &LABEL7,&LABEL8                                          16050002
.*                            THIS MACRO ALLOWS UP TO ACHT LABELS TO    16125002
.*                                 BE SPECIFIED FOR A GIVEN LINE. THE   16200002
.*                                 LABELS SHOULD BE ENCLOSED IN QUOTA-  16275002
.*                                 TION MARKS. THE COLUMN AND LINE END  16350002
.*                                 CONTROLS WILL BE INSERTED BY THE     16425002
.*                                 MACRO. OMITTED OPERANDS MEAN NO      16500002
.*                                 LABEL REQUIRED FOR RESPECTIVE        16575002
.*                                 COLUMN. THIS MACRO WILL ALSO ALERT   16650002
.*                                 THE PROGRAMMER TO EXACTLY WHERE THE  16725002
.*                                 TABLE MUST BE BROKEN IF NECESSARY    16800002
.*                                 TO AVOID EXCEEDING THE MAXIMUM LIMIT 16875002
         GBLC &LABELS(2000)                                             16950002
         GBLC  &LBL(100)                                                17025002
         GBLA  &LBLCTR(100)                                             17100002
         GBLA  &LABELNR                                                 17175002
         GBLA  &NRENTS,&LPTR                                            17250002
         LCLC  &MARGIN,&TACK                                            17325002
         LCLC  &TEXT                                                    17400002
         LCLA  &OP,&K,&START,&NRCHAR,&REMAIN                            17475002
&MARGIN  SETC  '*'                                                      17550002
         AIF   ('&NAME' EQ '').LOOPOUT                                  17625002
&LPTR    SETA  &LPTR+1                                                  17700002
&LBL(&LPTR) SETC '&NAME'                                                17775002
&LBLCTR(&LPTR) SETA &LABELNR+1                                          17850002
.LOOPOUT ANOP                                                           17925002
&OP      SETA  &OP+1                                                    18000002
&K       SETA  K'&SYSLIST(&OP)                                          18075002
         AIF (&K GE 2).NORM                                             18150002
&K       SETA  2                                                        18225002
.NORM    ANOP                                                           18300002
&START   SETA  2                                                        18375002
         AIF (&OP LT N'&SYSLIST).NOTLAST                                18450002
&MARGIN  SETC  '$'                                                      18525002
.NOTLAST ANOP                                                           18600002
&NRCHAR  SETA  8                                                        18675002
&TACK    SETC  ''                                                       18750002
.LOOPIN  ANOP                                                           18825002
&REMAIN  SETA  &K-&START                                                18900002
         AIF (&REMAIN GE 8).MORE                                        18975002
&TACK    SETC  '&MARGIN'                                                19050002
&NRCHAR  SETA  &REMAIN                                                  19125002
.MORE    ANOP                                                           19200002
&TEXT    SETC  ''                                                       19275002
         AIF (&REMAIN EQ 0).ENDTEXT                                     19350002
&TEXT    SETC  '&SYSLIST(&OP)'(&START,&NRCHAR)                          19425002
.ENDTEXT ANOP                                                           19500002
&LABELNR SETA  &LABELNR+1                                               19575002
&LABELS(&LABELNR) SETC '&TEXT'.'&TACK'                                  19650002
&START   SETA  &START+8                                                 19725002
         AIF ('&TACK' EQ '').LOOPIN                                     19800002
         AIF ('&TACK' EQ '*').LOOPOUT                                   19875002
         MEND                                                           19950002
         SPACE 2                                                        20025002
         MACRO                                                          20100002
         LSTART                                                         20175002
.*                            THIS MACRO IS ISSUED WHEN THE LABEL AREA  20250002
.*                                 OF THE TABLE IS TO BEGIN.            20325002
         GBLC &LABELS(2000)                                             20400002
         GBLA  &LABELNR                                                 20475002
         GBLC  &LBL(100)                                                20550002
         GBLA  &LBLCTR(100)                                             20625002
         LCLA  &NDX,&CTR                                                20700002
         LINEND                                                         20775002
&CTR     SETA  1                                                        20850002
.LOOP    ANOP                                                           20925002
&NDX     SETA  &NDX+1                                                   21000002
         AIF   (&LBLCTR(&CTR) NE &NDX).NOLBL                            21075002
&LBL(&CTR) DC  C'&LABELS(&NDX)'                                         21150002
&CTR     SETA  &CTR+1                                                   21225002
         AGO   .LOOPCTL                                                 21300002
.NOLBL   ANOP                                                           21375002
         DC    C'&LABELS(&NDX)'                                         21450002
.LOOPCTL AIF   (&NDX LT &LABELNR).LOOP                                  21525002
         MEND                                                           21600002
         SPACE 2                                                        21675002
*  BIN MACRO     BIN MACRO     BIN MACRO     BIN MACRO     BIN MACRO  * 21750002
         SPACE 2                                                        21825002
         MACRO                                                          21900002
         BIN   &LOGITEM,&SKIP$OR                                        21975002
.*                                 &LOGITEM - NAME OF ITEM IN LOG       22050002
.*                                      RECORD DSECT                    22125002
.*                                 &SKIP$OR - NBR OF SPACES TO SKIP ON  22200002
.*                                 MULTIPLE PRINT OR NBR OF SPACES      22275002
.*                                      TO BACK UP FROM COLUMN FOR      22350002
.*                                      START OF PRINTING. THE LETTER   22425002
.*                                      B PRECEEDS THE NUMBER (B5) IF   22500002
.*                                      THE LATTER IS DESIRED. OMISSION 22575002
.*                                      OF THIS OPERAND FORCES OPTION 2 22650002
.*                                      WITH BACKUP SPACING EQUAL TO    22725002
.*                                 THE NUMBER OF BITS IN THE ITEM       22800002
.*                                 DEFINITION (VIA MACRO 'DSGEN').      22875002
.*                            A LIMIT OF 15 BITS IS IMPOSED FOR THE     22950002
.*                                 TOTAL NUMBER OF BITS TO PRINT.       23025002
         GBLC &ITEM(1000)                                               23100002
         GBLA &ITEMNBR,&BITS(1000),&SHIFT(1000),&NRENTS                 23175002
         GBLC  &DSECT                                                   23250002
         LCLB  &B                                                       23325002
         LCLA  &IBITS,&NDX,&ISHIFT,&K                                   23400002
         LCLA  &TEMP,&T                                                 23475002
         LCLC  &S                                                       23550002
.LOOP    ANOP                                                           23625002
&NDX     SETA  &NDX+1                                                   23700002
         AIF   ('&ITEM(&NDX)' EQ '&LOGITEM').FOUND                      23775002
         AIF   (&NDX LT &ITEMNBR).LOOP                                  23850002
         MNOTE *,'YOU BLEW IT'                                          23925002
         ROUTINE DUM,SKIPPER                                            24000002
         MEXIT                                                          24075002
.FOUND   ANOP                                                           24150002
&ISHIFT  SETA  &SHIFT(&NDX)                                             24225002
&IBITS   SETA  &BITS(&NDX)                                              24300002
&T       SETA  &IBITS-1                                                 24375002
&B       SETB  0                                                        24450002
         AIF   ('&SKIP$OR' EQ '').BACKUP                                24525002
&K       SETA  K'&SKIP$OR                                               24600002
&B       SETB  ('&SKIP$OR'(1,1) EQ 'B')                                 24675002
&S       SETC  '&SKIP$OR'(&B+1,&K-&B)                                   24750002
&T       SETA  &S                                                       24825002
.BACKUP  ANOP                                                           24900002
&NRENTS  SETA  &NRENTS+1                                                24975002
&TEMP    SETA  &ISHIFT                                                  25050002
A&SYSNDX DC    AL.12(&LOGITEM-&DSECT),XL.4'&TEMP'                       25125002
         AIF (&IBITS EQ 1 AND &B EQ 0).OUT                              25200002
         ORG   A&SYSNDX                                                 25275002
&B       SETB  1                                                        25350002
         DC    AL.12(&LOGITEM-&DSECT),XL.4'C'                           25425002
         DC    BL.1'&B',AL.7(&T),AL.4(&IBITS),FL.4'&ISHIFT'             25500002
.OUT     ANOP                                                           25575002
         MEND                                                           25650002
         EJECT                                                          25725002
*  HEX MACRO     HEX MACRO     HEX MACRO    HEXN MACRO     HEX MACRO  * 25800002
         SPACE 2                                                        25875002
         MACRO                                                          25950002
         HEX   &LOGITEM,&SKIP$OR,&BYTES                                 26025002
.*                                 CONVERSIONS.                         26100002
.*                            &LOGITEM - NAME OF DATA ITEM TO BE        26175002
.*                                 CONVERTED                            26250002
.*                            &SKIP$OR - NUMBER OF SPACES TO SKIP ON    26325002
.*                                 MULTIPLE PRINT OR NBR OF SPACES TO   26400002
.*                                 BACK UP FROM COLUMN FOR START OF     26475002
.*                                 PRINTING. THE LETTER B PRECEEDS THE  26550002
.*                                 NUMBER (B8) IF THE LATTER OPTION IS  26625002
.*                                 DESIRED. OMISSION OF THIS OPERAND    26700002
.*                                 FORCES OPTION 2 WITH BACKUP SPACING  26775002
.*                                 EQUAL TO THE NUMBER OF BYTES SPECI-  26850002
.*                                 FIED BY THE NEXT OPERAND (TWICE THIS 26925002
.*                                 NUMBER IF SUFFIX IS EXPLICITLY OR    27000002
.*                                 IMPLICITLY B).                       27075002
.*                            &BYTES - NUMBER OF TOTAL INPUT BYTES TO   27150002
.*                                 PROCESS. THIS NUMBER IS SUFFIXED     27225002
.*                                 WITH AN L,R, OR B TO STIPULATE       27300002
.*                                 PRINTING OF THE LEFT HALF, RIGHT     27375002
.*                                 HALF, OR BOTH HALVES OF THE BYTE     27450002
.*                                 RESPECTIVELY. OMISSION OF THIS       27525002
.*                                 OPERAND DEFAULTS TO B WITH THE NUM-  27600002
.*                                 BER OF BYTES EQUAL TO THE ITEM LNGTH 27675002
.*                            A NEW ENTRY IS GENERATED ONLY WHEN NECES- 27750002