         TITLE 'IFCEXXX0 - EDIT TABLE - LINKNAME=IFCE2701, ALIASES=IFCEC00080002
               2702,IFCE2703,IFCE2955'                                  00160002
         SPACE 2                                                        00240002
*  LINE MACRO     LINE MACRO     LINE MACRO     LINE MACRO            * 00320002
         MACRO                                                          00400002
&NAME    LINE  &DATA,&LABEL,&SKIP=                                      00480002
.*                            THIS MACRO ESTABLISHES THE MARGINS OR     00560002
.*                                 COLUMN SETTINGS FOR EACH LINE. IT    00640002
.*                                 GENERATES NECESSARY CARRIAGE CONTROL 00720002
.*                                 ENTRIES. LASTLY IT DETERMINES THE    00800002
.*                                 NUMBER OF ENTRIES ASSOCIATED WITH    00880002
.*                                 THE PREVIOUS LINE AND STORES THAT #  00960002
.*                                 INTO THE APPROPRIATE BYTE.           01040002
.*                                 &DATA(1) - CHARACTER POSITION TO     01120002
.*                                 BEGIN DATA.                          01200002
.*                                                                      01280002
.*                                 &DATA(2) - # OF SPACES BETWEEN       01360002
.*                                 SUCCESSIVE DATA COLUMN STARTING      01440002
.*                                 CHARACTERS.                          01520002
.*                                                                      01600002
.*                                 &LABEL(1) - CHARACTER POSITION       01680002
.*                                 TO BEGIN LABELS.                     01760002
.*                                                                      01840002
.*                                 &LABEL(2) - # OF SPACES BETWEEN      01920002
.*                                 LINE'S LABEL STARTING CHARACTERS.    02000002
.*                                                                      02080002
.*                                 &SKIP= - # OF LINES TO ADVANCE       02160002
.*                                 CARRIAGE TO BEGIN NEXT PRINTED LINE. 02240002
.*                                                                      02320002
.*                                 NEW ENTRIES ARE GENERATED ONLY WHEN  02400002
.*                                 NECESSARY. OMISSION OF ITEMS MEANS   02480002
.*                                 THEY HAVE NOT CHANGED SINCE PREVIOUS 02560002
.*                                 SETTINGS. A LINE MACRO IS REQUIRED   02640002
.*                                 FOR EACH PRINTED LINE. IF NO SETTING 02720002
.*                                 CHANGES ARE REQUIRED ALL OPERANDS    02800002
.*                                 ARE OMITTED IN WHICH CASE ONLY THE   02880002
.*                                 # OF ENTRIES FOR THE PREVIOUS LINE   02960002
.*                                 FIRST MACRO INSTRUCTION ISSUED FOR   03040002
.*                                 THE SUBJECT LINE.                    03120002
         GBLA  &DB,&DT,&LB,&LT,&NRENTS                                  03200002
         GBLA  &LASTCC,&INITIAL                                         03280002
         GBLC  &NRENTSX                                                 03360002
         GBLC  &CARRCON                                                 03440002
         GBLB  &TEST                                                    03520002
         LCLA  &S                                                       03600002
&NAME    DS    0C                                                       03680002
         AIF   (&INITIAL EQ 0).FIRSTLN                                  03760002
         LINEND                                                         03840002
         AGO   .NTFIRST                                                 03920002
.FIRSTLN ANOP                                                           04000002
&NRENTSX SETC  'N&SYSNDX'                                               04080002
&INITIAL SETA  1                                                        04160002
&LASTCC  SETA  1                                                        04240002
N&SYSNDX EQU   *                                                        04320002
.NTFIRST ANOP                                                           04400002
         DC    AL1(0)                                                   04480002
         AIF   ('&DATA(1)' EQ '').CKDTABS                               04560002
         AIF   ('&DATA'(1,1) NE '(').SLABEL                             04640002
         AIF   (&DATA(1) EQ &DB).CKDTABS                                04720002
&DB      SETA  &DATA(1)                                                 04800002
         AGO   .AA                                                      04880002
.CKDTABS AIF   ('&DATA(2)' EQ '').NCDATA                                04960002
         AIF   (&DATA(2) EQ &DT).NCDATA                                 05040002
         AGO   .CC                                                      05120002
.AA      AIF   ('&DATA(2)' EQ '').BB                                    05200002
         AIF   (&DATA(2) EQ &DT).BB                                     05280002
.CC      ANOP                                                           05360002
&DT      SETA  &DATA(2)                                                 05440002
.BB      DC    XL2'FFFE'                                                05520002
         DC    FL1'&DB'                                                 05600002
         DC    FL1'&DT'                                                 05680002
&NRENTS  SETA  &NRENTS+1                                                05760002
.NCDATA  ANOP                                                           05840002
         AIF   ('&LABEL(1)' EQ '').CKLTABS                              05920002
         AIF   ('&LABEL'(1,1) NE '(').SLABEL                            06000002
         AIF   (&LABEL(1) EQ &LB).CKLTABS                               06080002
&LB      SETA  &LABEL(1)                                                06160002
         AGO   .AAA                                                     06240002
.CKLTABS AIF   ('&LABEL(2)' EQ '').NCLABEL                              06320002
         AIF   (&LABEL(2) EQ &LT).NCLABEL                               06400002
         AGO   .CCC                                                     06480002
.AAA     AIF   ('&LABEL(2)' EQ '').BBB                                  06560002
         AIF   (&LABEL(2) EQ &LT).BBB                                   06640002
.CCC     ANOP                                                           06720002
&LT      SETA  &LABEL(2)                                                06800002
.BBB     DC    XL2'FFFF'                                                06880002
         DC    FL1'&LB'                                                 06960002
         DC    FL1'&LT'                                                 07040002
&NRENTS  SETA  &NRENTS+1                                                07120002
.NCLABEL ANOP                                                           07200002
         AIF   ('&SKIP' EQ 'E').EJECT                                   07280002
         AIF   ('&SKIP' EQ '').TESTOFF                                  07360002
.CONT    ANOP                                                           07440002
         AIF   (&TEST EQ 0).AB                                          07520002
         AIF   (&SKIP EQ &LASTCC).TESTOFF                               07600002
&S       SETA  &SKIP                                                    07680002
         ORG   &CARRCON+3                                               07760002
         DC    AL.3(0),AL.2(&S),AL.3(1)                                 07840002
         ORG                                                            07920002
&LASTCC  SETA  &S                                                       08000002
.SLABEL  ANOP                                                           08080002
.TESTOFF ANOP                                                           08160002
&TEST    SETB  0                                                        08240002
         AGO   .DD                                                      08320002
.EJECT   DC    XL2'FFFB'                                                08400002
&NRENTS  SETA  &NRENTS+1                                                08480002
         DC    X'8B'              SKIP TO CHANNEL 1                     08560002
         DC    AL.3(0),AL.2(&LASTCC),AL.3(1)                            08640002
&TEST    SETB  1                                                        08720002
         AGO   .DD                                                      08800002
.AB      AIF   (&SKIP EQ &LASTCC).NOCHANG                               08880002
A&SYSNDX DC    XL2'FFFB'                                                08960002
         DC    AL.3(0),AL.2(&SKIP),AL.3(1)                              09040002
         DC    AL.3(0),AL.2(&SKIP),AL.3(1)                              09120002
&LASTCC  SETA  &SKIP                                                    09200002
&TEST    SETB  1                                                        09280002
&CARRCON SETC  'A&SYSNDX'                                               09360002
&NRENTS  SETA  &NRENTS+1                                                09440002
.DD      ANOP                                                           09520002
.NOCHANG ANOP                                                           09600002
         MEND                                                           09680002
         EJECT                                                          09760002
         SPACE 2                                                        09840002
*  ROUTINE MACRO     ROUTINE MACRO     ROUTINE MACRO     ROUTINE MACRO* 09920002
         MACRO                                                          10000002
&NAME    ROUTINE &LOGITEM,&RNAME                                        10080002
         GBLC  &DSECT,&CSECT                                            10160002
         GBLC  &ITEM(1000)                                              10240002
         GBLA  &SHIFT(1000),&ITEMNBR                                    10320002
         GBLA  &NRENTS                                                  10400002
         LCLA  &ISHIFT,&NDX                                             10480002
.LOOP    ANOP                                                           10560002
&NDX     SETA  &NDX+1                                                   10640002
         AIF   ('&ITEM(&NDX)' EQ '&LOGITEM').FOUND                      10720002
         AIF   (&NDX LT &ITEMNBR).LOOP                                  10800002
         MNOTE *,'LOG ITEM NOT DEFINED'                                 10880002
         MEXIT                                                          10960002
.FOUND   ANOP                                                           11040002
&ISHIFT  SETA  &SHIFT(&NDX)                                             11120002
&NAME    DC    AL.12(&LOGITEM-&DSECT),XL.4'D'                           11200002
         DC    AL.4(&ISHIFT),AL.12(&RNAME-&CSECT)                       11280002
&NRENTS  SETA  &NRENTS+1                                                11360002
         MEND                                                           11440002
*  DSGEN MACRO     DSGEN MACRO     DSGEN MACRO     DSGEN MACRO        * 11520002
         SPACE 2                                                        11600002
         MACRO                                                          11680002
&NAME    DSGEN &X1,&X2,&X3,&X4,&X5,&X6,&X7,&X8,&X9,&X10,&X11,&X12,&X13,X11760002
               &X14,&X15,&X16,&X17,&X18,&X19,&X20,&X21,&X22,&X23,&X24, X11840002
               &X25,&X26,&X27,&X28,&X29,&X30,&X31,&X32                  11920002
.*                            THIS MACRO GENERATES ONE DSECT WORD       12000002
.*                                 FORMATTED FOR THE SUBJECT LOG RECORD 12080002
.*                                 EACH OPERAND HAS TWO SUB LISTS. THE  12160002
.*                                 FIRST IS THE NAME OF THE LOG ITEM    12240002
.*                                 WHILE THE SECOND IS THE # OF BITS TO 12320002
.*                                 ALLOCATE FOR THIS ITEM. ITEMS MUST   12400002
.*                                 BE DEFINED CONTIGUOUSLY WITHOUT GAPS 12480002
.*                                 UNUSED BIT GROUPS MUST BE GIVEN      12560002
.*                                 DUMMY NAMES. THE NAMES PROVIDED FOR  12640002
.*                                 THE LOG ITEMS MAY THEN BE USED IN    12720002
.*                                 THE CONVERSION MACRO INSTRUCTIONS.   12800002
         GBLC &ITEM(1000)                                               12880002
         GBLA &ITEMNBR,&BITS(1000),&SHIFT(1000)                         12960002
         LCLC  &SYMBOL                                                  13040002
         LCLA  &OP,&COUNT,&BYTE                                         13120002
.LOOP    ANOP                                                           13200002
&OP      SETA  &OP+1                                                    13280002
&ITEMNBR SETA  &ITEMNBR+1                                               13360002
&SYMBOL  SETC  '&SYSLIST(&OP,1)'                                        13440002
         AIF   ('&SYSLIST(&OP,2)' NE '').OK1                            13520002
         MNOTE *,'NULL BIT COUNT FIELD'                                 13600002
         MEXIT                                                          13680002
.OK1     ANOP                                                           13760002
         AIF   ('&SYMBOL' NE '').OK                                     13840002
         MNOTE 'LOG ITEM SYMBOL NOT PROVIDED'                           13920002
         AGO   .CNT                                                     14000002
.OK      ANOP                                                           14080002
         AIF   ('&SYMBOL'(1,1) EQ '''').CNT                *TEMP*       14160002
&SYMBOL  EQU   *+&BYTE                                                  14240002
&ITEM(&ITEMNBR)  SETC '&SYSLIST(&OP,1)'                                 14320002
&BITS(&ITEMNBR) SETA &SYSLIST(&OP,2)                                    14400002
&SHIFT(&ITEMNBR) SETA &COUNT-&BYTE*8                                    14480002
.CNT     ANOP                                                           14560002
&COUNT   SETA  &COUNT+&SYSLIST(&OP,2)                                   14640002
&BYTE    SETA  &COUNT/8                                                 14720002
         AIF (&OP LT N'&SYSLIST).LOOP                                   14800002
         AIF   (&COUNT NE 32).NOT32                                     14880002
&NAME    DS    4C                                                       14960002
         MEXIT                                                          15040002
.NOT32   AIF   (&COUNT NE 64).ERR                                       15120002
&NAME    DS    8C                                                       15200002
         MEXIT                                                          15280002
.ERR     MNOTE '**BIT COUNT FIELDS DO NOT TOTAL 32 OR 64**'             15360002
         MEND                                                           15440002
         MACRO                                                          15520002
         LINEND                                                         15600002
.*                            THIS MACRO IS USED ONLY BY THE LINE       15680002
.*                                 MACRO TO SET THE NUMBER OF ENTRIES   15760002
.*                                 ASSOCIATED WITH EACH LINE.           15840002
         GBLA  &NRENTS                                                  15920002
         GBLC &NRENTSX                                                  16000002
         ORG   &NRENTSX                                                 16080002
         DC    FL1'&NRENTS'                                             16160002
         ORG                                                            16240002
&NRENTS  SETA  0                                                        16320002
B&SYSNDX EQU   *                                                        16400002
&NRENTSX SETC  'B&SYSNDX'                                               16480002
         MEND                                                           16560002
         SPACE 2                                                        16640002
         EJECT                                                          16720002
*  LABEL MACRO     LABEL MACRO     LABEL MACRO     LABEL MACRO        * 16800002
         SPACE 2                                                        16880002
         MACRO                                                          16960002
&NAME    LABEL &LABEL1,&LABEL2,&LABEL3,&LABEL4,&LABEL5,&LABEL6,        C17040002
               &LABEL7,&LABEL8                                          17120002
.*                            THIS MACRO ALLOWS UP TO ACHT LABELS TO    17200002
.*                                 BE SPECIFIED FOR A GIVEN LINE. THE   17280002
.*                                 LABELS SHOULD BE ENCLOSED IN QUOTA-  17360002
.*                                 TION MARKS. THE COLUMN AND LINE END  17440002
.*                                 CONTROLS WILL BE INSERTED BY THE     17520002
.*                                 MACRO. OMITTED OPERANDS MEAN NO      17600002
.*                                 LABEL REQUIRED FOR RESPECTIVE        17680002
.*                                 COLUMN. THIS MACRO WILL ALSO ALERT   17760002
.*                                 THE PROGRAMMER TO EXACTLY WHERE THE  17840002
.*                                 TABLE MUST BE BROKEN IF NECESSARY    17920002
.*                                 TO AVOID EXCEEDING THE MAXIMUM LIMIT 18000002
         GBLC &LABELS(2000)                                             18080002
         GBLC  &LBL(100)                                                18160002
         GBLA  &LBLCTR(100)                                             18240002
         GBLA  &LABELNR                                                 18320002
         GBLA  &NRENTS,&LPTR                                            18400002
         LCLC  &MARGIN,&TACK                                            18480002
         LCLC  &TEXT                                                    18560002
         LCLA  &OP,&K,&START,&NRCHAR,&REMAIN                            18640002
&MARGIN  SETC  '*'                                                      18720002
         AIF   ('&NAME' EQ '').LOOPOUT                                  18800002
&LPTR    SETA  &LPTR+1                                                  18880002
&LBL(&LPTR) SETC '&NAME'                                                18960002
&LBLCTR(&LPTR) SETA &LABELNR+1                                          19040002
.LOOPOUT ANOP                                                           19120002
&OP      SETA  &OP+1                                                    19200002
&K       SETA  K'&SYSLIST(&OP)                                          19280002
         AIF (&K GE 2).NORM                                             19360002
&K       SETA  2                                                        19440002
.NORM    ANOP                                                           19520002
&START   SETA  2                                                        19600002
         AIF (&OP LT N'&SYSLIST).NOTLAST                                19680002
&MARGIN  SETC  '$'                                                      19760002
.NOTLAST ANOP                                                           19840002
&NRCHAR  SETA  8                                                        19920002
&TACK    SETC  ''                                                       20000002
.LOOPIN  ANOP                                                           20080002
&REMAIN  SETA  &K-&START                                                20160002
         AIF (&REMAIN GE 8).MORE                                        20240002
&TACK    SETC  '&MARGIN'                                                20320002
&NRCHAR  SETA  &REMAIN                                                  20400002
.MORE    ANOP                                                           20480002
&TEXT    SETC  ''                                                       20560002
         AIF (&REMAIN EQ 0).ENDTEXT                                     20640002
&TEXT    SETC  '&SYSLIST(&OP)'(&START,&NRCHAR)                          20720002
.ENDTEXT ANOP                                                           20800002
&LABELNR SETA  &LABELNR+1                                               20880002
&LABELS(&LABELNR) SETC '&TEXT'.'&TACK'                                  20960002
&START   SETA  &START+8                                                 21040002
         AIF ('&TACK' EQ '').LOOPIN                                     21120002
         AIF ('&TACK' EQ '*').LOOPOUT                                   21200002
         MEND                                                           21280002
         SPACE 2                                                        21360002
         MACRO                                                          21440002
         LSTART                                                         21520002
.*                            THIS MACRO IS ISSUED WHEN THE LABEL AREA  21600002
.*                                 OF THE TABLE IS TO BEGIN.            21680002
         GBLC &LABELS(2000)                                             21760002
         GBLA  &LABELNR                                                 21840002
         GBLC  &LBL(100)                                                21920002
         GBLA  &LBLCTR(100)                                             22000002
         LCLA  &NDX,&CTR                                                22080002
         LINEND                                                         22160002
&CTR     SETA  1                                                        22240002
.LOOP    ANOP                                                           22320002
&NDX     SETA  &NDX+1                                                   22400002
         AIF   (&LBLCTR(&CTR) NE &NDX).NOLBL                            22480002
&LBL(&CTR) DC  C'&LABELS(&NDX)'                                         22560002
&CTR     SETA  &CTR+1                                                   22640002
         AGO   .LOOPCTL                                                 22720002
.NOLBL   ANOP                                                           22800002
         DC    C'&LABELS(&NDX)'                                         22880002
.LOOPCTL AIF   (&NDX LT &LABELNR).LOOP                                  22960002
         MEND                                                           23040002
         SPACE 2                                                        23120002
*  BIN MACRO     BIN MACRO     BIN MACRO     BIN MACRO     BIN MACRO  * 23200002
         SPACE 2                                                        23280002
         MACRO                                                          23360002
         BIN   &LOGITEM,&SKIP$OR                                        23440002
.*                                 &LOGITEM - NAME OF ITEM IN LOG       23520002
.*                                      RECORD DSECT                    23600002
.*                                 &SKIP$OR - NBR OF SPACES TO SKIP ON  23680002
.*                                 MULTIPLE PRINT OR NBR OF SPACES      23760002
.*                                      TO BACK UP FROM COLUMN FOR      23840002
.*                                      START OF PRINTING. THE LETTER   23920002
.*                                      B PRECEEDS THE NUMBER (B5) IF   24000002
.*                                      THE LATTER IS DESIRED. OMISSION 24080002
.*                                      OF THIS OPERAND FORCES OPTION 2 24160002
.*                                      WITH BACKUP SPACING EQUAL TO    24240002
.*                                 THE NUMBER OF BITS IN THE ITEM       24320002
.*                                 DEFINITION (VIA MACRO 'DSGEN').      24400002
.*                            A LIMIT OF 15 BITS IS IMPOSED FOR THE     24480002
.*                                 TOTAL NUMBER OF BITS TO PRINT.       24560002
         GBLC &ITEM(1000)                                               24640002
         GBLA &ITEMNBR,&BITS(1000),&SHIFT(1000),&NRENTS                 24720002
         GBLC  &DSECT                                                   24800002
         LCLB  &B                                                       24880002
         LCLA  &IBITS,&NDX,&ISHIFT,&K                                   24960002
         LCLA  &TEMP,&T                                                 25040002
         LCLC  &S                                                       25120002
.LOOP    ANOP                                                           25200002
&NDX     SETA  &NDX+1                                                   25280002
         AIF   ('&ITEM(&NDX)' EQ '&LOGITEM').FOUND                      25360002
         AIF   (&NDX LT &ITEMNBR).LOOP                                  25440002
         MNOTE *,'YOU BLEW IT'                                          25520002
         ROUTINE DUM,SKIPPER                                            25600002
         MEXIT                                                          25680002
.FOUND   ANOP                                                           25760002
&ISHIFT  SETA  &SHIFT(&NDX)                                             25840002
&IBITS   SETA  &BITS(&NDX)                                              25920002
&T       SETA  &IBITS-1                                                 26000002
&B       SETB  0                                                        26080002
         AIF   ('&SKIP$OR' EQ '').BACKUP                                26160002
&K       SETA  K'&SKIP$OR                                               26240002
&B       SETB  ('&SKIP$OR'(1,1) EQ 'B')                                 26320002
&S       SETC  '&SKIP$OR'(&B+1,&K-&B)                                   26400002
&T       SETA  &S                                                       26480002
.BACKUP  ANOP                                                           26560002
&NRENTS  SETA  &NRENTS+1                                                26640002
&TEMP    SETA  &ISHIFT                                                  26720002
A&SYSNDX DC    AL.12(&LOGITEM-&DSECT),XL.4'&TEMP'                       26800002
         AIF (&IBITS EQ 1 AND &B EQ 0).OUT                              26880002
         ORG   A&SYSNDX                                                 26960002
&B       SETB  1                                                        27040002
         DC    AL.12(&LOGITEM-&DSECT),XL.4'C'                           27120002
         DC    BL.1'&B',AL.7(&T),AL.4(&IBITS),FL.4'&ISHIFT'             27200002
.OUT     ANOP                                                           27280002
         MEND                                                           27360002
         EJECT                                                          27440002
*  HEX MACRO     HEX MACRO     HEX MACRO    HEXN MACRO     HEX MACRO  * 27520002
         SPACE 2                                                        27600002
         MACRO                                                          27680002
         HEX   &LOGITEM,&SKIP$OR,&BYTES                                 27760002
.*                            THIS MACRO FACILITATES GENERATION OF THE  27840002
.*                                 TABLE ENTRIES SPECIFYING HEX TYPE    27920002
.*                                 CONVERSIONS.                         28000002
.*                            &LOGITEM - NAME OF DATA ITEM TO BE        28080002
.*                                 CONVERTED                            28160002
.*                            &SKIP$OR - NUMBER OF SPACES TO SKIP ON    28240002
.*                                 MULTIPLE PRINT OR NBR OF SPACES TO   28320002
.*                                 BACK UP FROM COLUMN FOR START OF     28400002
.*                                 PRINTING. THE LETTER B PRECEEDS THE  28480002
.*                                 NUMBER (B8) IF THE LATTER OPTION IS  28560002
.*                                 DESIRED. OMISSION OF THIS OPERAND    28640002
.*                                 FORCES OPTION 2 WITH BACKUP SPACING  28720002
.*                                 EQUAL TO THE NUMBER OF BYTES SPECI-  28800002
.*                                 FIED BY THE NEXT OPERAND (TWICE THIS 28880002
.*                                 NUMBER IF SUFFIX IS EXPLICITLY OR    28960002
.*                                 IMPLICITLY B).                       29040002
.*                            &BYTES - NUMBER OF TOTAL INPUT BYTES TO   29120002
.*                                 PROCESS. THIS NUMBER IS SUFFIXED     29200002
.*                                 WITH AN L,R, OR B TO STIPULATE       29280002
.*                                 PRINTING OF THE LEFT HALF, RIGHT     29360002
.*                                 HALF, OR BOTH HALVES OF THE BYTE     29440002
.*                                 RESPECTIVELY. OMISSION OF THIS       29520002
.*                                 OPERAND DEFAULTS TO B WITH THE NUM-  29600002