 TITLE 'IFCEDDR0  IFCEMIH0 - DDR/MIH EREP EDIT MODULE'                  00080002
         MACRO                                                          00160002
&NAME    DSGEN ,                                                        00240002
.*                            THIS MACRO GENERATES ONE DSECT WORD       00320002
.*                                 FORMATTED FOR THE SUBJECT LOG RECORD 00400002
.*                                 EACH OPERAND HAS TWO SUB LISTS. THE  00480002
.*                                 FIRST IS THE NAME OF THE LOG ITEM    00560002
.*                                 WHILE THE SECOND IS THE # OF BITS TO 00640002
.*                                 ALLOCATE FOR THIS ITEM. ITEMS MUST   00720002
.*                                 BE DEFINED CONTIGUOUSLY WITHOUT GAPS 00800002
.*                                 UNUSED BIT GROUPS MUST BE GIVEN      00880002
.*                                 DUMMY NAMES. THE NAMES PROVIDED FOR  00960002
.*                                 THE LOG ITEMS MAY THEN BE USED IN    01040002
.*                                 THE CONVERSION MACRO INSTRUCTIONS.   01120002
         GBLA  &BITS(2600),&DB,&DT,&INITIAL                             01200002
         GBLA  &ITEMITR,&ITEMFST(20),&ITEMNBR,&ITEMMDX                  01280002
         GBLA  &ITEMNDX(2600),&ITEMXPT                                  01360002
         GBLA  &LABELNR,&LASTCC,&LB,&LBLCTR(100),&LPTR,&LT              01440002
         GBLA  &NRENTS,&SHIFT(2600)                                     01520002
         GBLB  &DIAGITF,&DIAGLIN,&DIAGSET,&DIAGTST,&FSW,&TEST           01600002
         GBLC  &CARRCON,&CSECT,&DSECT,&ITEM(2600)                       01680002
         GBLC  &LABELS(2600),&LBL(100),&NRENTSX                         01760002
         LCLB  &ONLY1,&CTIND                                            01840002
         LCLA  &START1,&START2,&END1,&END2                              01920002
         LCLC  &SYMBOL,&EQUSYM                                          02000002
         LCLA  &OP,&COUNT,&BYTE,&EQUCNT                                 02080002
         ACTR  100000                                                   02160002
         AIF   (&ITEMITR EQ 0).START                                    02240002
 MNOTE   20,'DSGEN MACRO OCCURRS AFTER ITEMSORT MACRO HAS BEEN ISSUED.' 02320002
         MEXIT                                                          02400002
.START   AIF   (N'&SYSLIST(&OP+1) LT 3).LOOP                            02480002
         AIF   ('&SYSLIST(&OP+1,3)' EQ 'EQU').LOOP     TEST FOR EQU     02560002
  AIF   ('&SYSLIST(&OP+1,3)' EQ '' OR '&SYSLIST(&OP+1,4)' EQ '').ERR1   02640002
         AIF   ('&SYSLIST(&OP+1,3)' GT '&SYSLIST(&OP+1,4)').ERR3        02720002
&START1  SETA  &SYSLIST(&OP+1,3)        GET START COUNT OF 1            02800002
&START2  SETA  &SYSLIST(&OP+1,4)        GET FIRST END COUNT             02880002
         AGO   .SET2A                   BRANCH AROUND                   02960002
         AIF   ('&SYSLIST(&OP+1,5)' GT '&SYSLIST(&OP+1,6)').ERR3        03040002
.ERR1    MNOTE '**FIRST SYMBOL CONCATENATION INCOMPLETE**'              03120002
         MEXIT                                                          03200002
.SET2A   AIF   ('&SYSLIST(&OP+1,5)' EQ ''AND '&SYSLIST(&OP+1,6)' EQ '' X03280002
               ).SET2                   TEST FOR NO SECOND              03360002
  AIF   ('&SYSLIST(&OP+1,5)' EQ '' OR '&SYSLIST(&OP+1,6)' EQ '').ERR2   03440002
&END1    SETA  &SYSLIST(&OP+1,5)        GET START COUNT OF 2            03520002
&END2    SETA  &SYSLIST(&OP+1,6)        GET END COUNT OF 2              03600002
         AGO   .LOOP                                                    03680002
.SET2    ANOP                                                           03760002
&ONLY1   SETB  1                        INDICATE ONLY ONE CONCATENATION 03840002
         AGO   .LOOP                                                    03920002
.ERR2    MNOTE '**SECOND SYMBOL CONCATENATION INCOMPLETE**'             04000002
         MEXIT                                                          04080002
.ERR3    MNOTE '**START GREATER THAN END CONCATENATION**'               04160002
         MEXIT                                                          04240002
.LOOP    ANOP                                                           04320002
&OP      SETA  &OP+1                                                    04400002
         AIF   (&OP GT N'&SYSLIST).DONE      TEST IF ALL DONE           04480002
&ITEMNBR SETA  &ITEMNBR+1                                               04560002
         AIF   ('&SYSLIST(&OP,2)' NE '').OK1                            04640002
         MNOTE '**NULL BIT COUNT FIELD**'                               04720002
         MEXIT                                                          04800002
.OK1     ANOP                                                           04880002
&SYMBOL  SETC  '&SYSLIST(&OP,1)'                                        04960002
         AIF   ('&SYMBOL' NE '').OK                                     05040002
*              *****     LOG ITEM SYMBOL NOT PROVIDED     *****         05120002
         AIF   ('&SYSLIST(&OP,3)' NE 'EQU').CNT                         05200002
         AGO   .START                   GET NEXT                        05280002
.OK      AIF   (N'&SYSLIST(&OP) LT 3).NO3    TEST FOR OLD FORMAT        05360002
         AIF   ('&SYSLIST(&OP,3)' EQ 'EQU').EQU   TEST FOR EQU          05440002
         AIF   (&ONLY1).OK2             TEST FOR ONLY ONE CONCAT        05520002
&SYMBOL  SETC  '&SYMBOL.&START1.&END1'       GET 1 AND 2 CONCAT         05600002
         AGO   .NO3                     BRANCH AROUND                   05680002
.OK2     ANOP                                                           05760002
&SYMBOL  SETC  '&SYMBOL.&START1'        GET 1 CONCATENATED              05840002
.NO3     ANOP                                                           05920002
&SYMBOL  EQU   *+&BYTE                                                  06000002
&ITEM(&ITEMNBR) SETC '&SYMBOL'          GET LABEL IN GLOBAL             06080002
&BITS(&ITEMNBR) SETA &SYSLIST(&OP,2)                                    06160002
&SHIFT(&ITEMNBR) SETA &COUNT-&BYTE*8                                    06240002
.CNT     ANOP                                                           06320002
&CTIND   SETB  1                        SET COUNT INDICATOR             06400002
&COUNT   SETA  &COUNT+&SYSLIST(&OP,2)                                   06480002
&BYTE    SETA  &COUNT/8                                                 06560002
         AIF   (N'&SYSLIST(&OP) LT 3).START  TEST FOR OLD FORMAT        06640002
         AIF   (&ONLY1).TSTST           TEST FOR ONLY ONE CONCAT        06720002
         AIF   (&END1 EQ &END2).TSTST   TEST FOR SECOND END             06800002
&END1    SETA  &END1+1                  INCREMENT COUNT                 06880002
&OP      SETA  &OP-1                    DECREMENT INCREMENT             06960002
         AGO   .LOOP                    GENERATE NEXT                   07040002
.TSTST   ANOP                                                           07120002
         AIF   (&START1 EQ &START2).LPDONE   TEST FOR END               07200002
         AIF   (&ONLY1).NSET1           TEST FOR ONLY ONE CONCAT        07280002
&END1    SETA  &SYSLIST(&OP,5)          RE-INIT SECOND START COUNT      07360002
.NSET1   ANOP                                                           07440002
&OP      SETA  &OP-1                    DECREMENT INDEX                 07520002
&START1  SETA  &START1+1                INCREMENT FIRST COUNT           07600002
         AGO   .LOOP                    GO DO NEXT                      07680002
.LPDONE  ANOP                                                           07760002
&ONLY1   SETB  0                        CLEAR INDICATOR                 07840002
         AGO   .START                   GO TEST FOR MORE SUB-LISTS      07920002
.DONE    AIF   (&COUNT-&COUNT/8*8 NE 0).ERR  TEST FOR MULTIPLE OF EIGHT 08000002
         AIF   (&CTIND EQ 0).END        NO DS IF NO COUNT               08080002
&COUNT   SETA  &COUNT/8                 GET NUMBER OF BYTES             08160002
&NAME    DS    &COUNT.C                                                 08240002
.END     MEXIT                                                          08320002
.ERR     MNOTE '**BIT COUNT FLDS DO NOT TOTAL MULTIPLE OF 8**'          08400002
         MEXIT                                                          08480002
.EQU     AIF   ('&SYSLIST(&OP,4)' NE '').EQU1     TEST FOR NULL LABEL   08560002
.ERR4    MNOTE '**EQU OPERAND OMITTED OR NOT FOUND**'                   08640002
         MEXIT                                                          08720002
.EQU1    AIF   (&SYSLIST(&OP,2) LT 16).EQU2  COUNT OVER FIFTEEN         08800002
*****               THE FOLLOWING STATEMENT                *****        08880002
*****     NUMBER OF BITS EXCEED 15 - DO NOT USE AS BIN     *****        08960002
.EQU2    ANOP                                                           09040002
&EQUCNT  SETA  0                        CLEAR COUNTER                   09120002
&EQUSYM  SETC  '&SYSLIST(&OP,4)'        GET EQU OPERAND                 09200002
.EQULOP  ANOP                                                           09280002
&EQUCNT  SETA  &EQUCNT+1                INCREMENT INDEX                 09360002
         AIF   ('&ITEM(&EQUCNT)' EQ '&EQUSYM').EQUOUT  LABEL FOUND?     09440002
         AIF   (&EQUCNT EQ &ITEMNBR).ERR4    ALL TESTED?                09520002
         AGO   .EQULOP                  NO-GET NEXT                     09600002
.EQUOUT  ANOP                                                           09680002
&ITEM(&ITEMNBR) SETC '&SYMBOL'          GET LABEL NAME                  09760002
&BITS(&ITEMNBR) SETA &SYSLIST(&OP,2)    GET NUMBER OF BITS              09840002
&SHIFT(&ITEMNBR) SETA &SHIFT(&EQUCNT)   GET SHIFT COUNT                 09920002
&SYMBOL  EQU   &EQUSYM                  THIS SYMBOL EQUATED             10000002
         AGO   .START                   RETURN FOR NEXT                 10080002
         MEND                                                           10160002
         MACRO                                                          10240002
         HEX   ,                                                        10320002
.*                            THIS MACRO FACILITATES GENERATION OF THE  10400002
.*                                 TABLE ENTRIES SPECIFYING HEX TYPE    10480002
.*                                 CONVERSIONS.                         10560002
.*                            &SYSLIST(&OP,1) - NAME OF DATA ITEM TO BE 10640002
.*                                 CONVERTED                            10720002
.*                            &SYSLIST(&OP,2) - # OF SPACES TO SKIP ON  10800002
.*                                 MULTIPLE PRINT OR NBR OF SPACES TO   10880002
.*                                 BACK UP FROM COLUMN FOR START OF     10960002
.*                                 PRINTING. THE LETTER B PRECEEDS THE  11040002
.*                                 NUMBER (B8) IF THE LATTER OPTION IS  11120002
.*                                 DESIRED. OMISSION OF THIS OPERAND    11200002
.*                                 FORCES OPTION 2 WITH BACKUP SPACING  11280002
.*                                 EQUAL TO THE NUMBER OF BYTES SPECI-  11360002
.*                                 FIED BY THE NEXT OPERAND (TWICE THIS 11440002
.*                                 NUMBER IF SUFFIX IS EXPLICITLY OR    11520002
.*                                 IMPLICITLY B).                       11600002
.*                            &SYSLIST(&OP,3) - NUMBER OF BYTES TO      11680002
.*                                 PROCESS. THIS NUMBER IS SUFFIXED     11760002
.*                                 WITH AN L,R, OR B TO STIPULATE       11840002
.*                                 PRINTING OF THE LEFT HALF, RIGHT     11920002
.*                                 HALF, OR BOTH HALVES OF THE BYTE     12000002
.*                                 RESPECTIVELY. OMISSION OF THIS       12080002
.*                                 OPERAND DEFAULTS TO B WITH THE NUM-  12160002
.*                                 BER OF BYTES EQUAL TO THE ITEM LNGTH 12240002
.*                            A NEW ENTRY IS GENERATED ONLY WHEN NECES- 12320002
.*                                 SARY. THIS MACRO MUST BE THE FIRST   12400002
.*                                 MACRO INSTRUCTION ISSUED FOR THE     12480002
.*                                 SUBJECT LINE(S).                     12560002
         GBLA  &BITS(2600),&DB,&DT,&INITIAL                             12640002
         GBLA  &ITEMITR,&ITEMFST(20),&ITEMNBR,&ITEMMDX                  12720002
         GBLA  &ITEMNDX(2600),&ITEMXPT                                  12800002
         GBLA  &LABELNR,&LASTCC,&LB,&LBLCTR(100),&LPTR,&LT              12880002
         GBLA  &NRENTS,&SHIFT(2600)                                     12960002
         GBLB  &DIAGITF,&DIAGLIN,&DIAGSET,&DIAGTST,&FSW,&TEST           13040002
         GBLC  &CARRCON,&CSECT,&DSECT,&ITEM(2600)                       13120002
         GBLC  &LABELS(2600),&LBL(100),&NRENTSX                         13200002
         LCLB  &B,&SUB                                                  13280002
         LCLA  &IBITS,&ISHIFT,&K,&T,&CODE,&BYTESP,&OP                   13360002
         LCLC  &S,&LETTER,&ARG                                          13440002
       ACTR  500000                                                     13520002
         AIF   (&DIAGTST EQ 0).NOMSG                                    13600002
         AIF   (&INITIAL EQ 0).NOMSG                                    13680002
         AIF   (&DIAGLIN EQ 1).NOMSG                                    13760002
         MNOTE '**NO LINE ASSOCIATED WITH THIS DATA**'                  13840002
*****THE FOLLOWING GENERATED FOR TEST PURPOSES*****                     13920002
*        LINE                                                           14000002
         LINE                                                           14080002
.NOMSG   ANOP                                                           14160002
         AIF   (K'&SYSLIST(1) EQ K'&SYSLIST(1,1)).LOOP                  14240002
&SUB     SETB  1                                                        14320002
.LOOP    ANOP                                                           14400002
&OP      SETA  &OP+1                                                    14480002
&ARG     SETC  '&SYSLIST(&OP,1)'                                        14560002
         ITEMFIND  &ARG                                                 14640002
         AIF   (&ITEMXPT EQ 0).MEXIT                                    14720002
.FOUND   ANOP                                                           14800002
&ISHIFT  SETA  &SHIFT(&ITEMXPT)                                         14880002
&IBITS   SETA  &BITS(&ITEMXPT)                                          14960002
         AIF   (&ISHIFT EQ 0 OR &ISHIFT EQ 4).ALIGN                     15040002
.ERR     MNOTE '**DATA NOT ALLIGNED ON HEX OR BYTE BOUNDARY**'          15120002
.MEXIT   MEXIT                                                          15200002
.ALIGN   ANOP                                                           15280002
&CODE    SETA  1                                                        15360002
         AIF   (&SUB EQ 1).SUBA                                         15440002
&K       SETA  K'&SYSLIST(3)                                            15520002
         AGO   .SUBB                                                    15600002
.SUBA    ANOP                                                           15680002
&K       SETA  K'&SYSLIST(&OP,3)                                        15760002
.SUBB    ANOP                                                           15840002
         AIF   (&K EQ 1).ERR3                                           15920002
         AIF   (&IBITS-(&IBITS/4)*4 EQ 0).OK                            16000002
         MNOTE '**BIT LENGTH SPECIFICATION INCONSISTENT WITH CONTROL**' 16080002
         MEXIT                                                          16160002
.OK      AIF   (&SUB EQ 1).SUBC                                         16240002
         AIF   ('&SYSLIST(3)' EQ '').USEDEFN                            16320002
&LETTER  SETC  '&SYSLIST(3)'(&K,1)                                      16400002
&S       SETC  '&SYSLIST(3)'(1,&K-1)                                    16480002
         AGO   .SUBD                                                    16560002
.SUBC    ANOP                                                           16640002
         AIF   ('&SYSLIST(&OP,3)' EQ '').USEDEFN                        16720002
&LETTER  SETC  '&SYSLIST(&OP,3)'(&K,1)                                  16800002
&S       SETC  '&SYSLIST(&OP,3)'(1,&K-1)                                16880002
.SUBD    ANOP                                                           16960002
&BYTESP  SETA  &S                                                       17040002
         AIF   ('&LETTER' EQ 'B').BOTH                                  17120002
         AIF   ('&LETTER' EQ 'L').LEFT                                  17200002
         AIF   ('&LETTER' EQ 'R').RIGHT                                 17280002
.ERR3    MNOTE '**PARAMETER 3 INCOMPLETE-DSGEN DEFINITION USED**'       17360002
         AGO   .USEDEFN                                                 17440002
.RIGHT   ANOP                                                           17520002
&CODE    SETA  2                                                        17600002
         AGO   .L                                                       17680002
.LEFT    ANOP                                                           17760002
&CODE    SETA  1                                                        17840002
         AGO   .L                                                       17920002
.USEDEFN ANOP                                                           18000002
&BYTESP  SETA  &IBITS/8                                                 18080002
.BOTH    AIF   (&ISHIFT NE 0).ERR                                       18160002
&CODE    SETA  3                                                        18240002
&T       SETA  &BYTESP*2-1                                              18320002
&S       SETC  '&T'                                                     18400002
.OK2     AIF   (&ISHIFT EQ 0).L                                         18480002
&CODE    SETA  2                                                        18560002
.L       ANOP                                                           18640002
&B       SETB  1                                                        18720002
         AIF   (&SUB EQ 1).SUBE                                         18800002
         AIF   ('&SYSLIST(2)' EQ '').BACKUP                             18880002
&K       SETA  K'&SYSLIST(2)                                            18960002
&B       SETB  ('&SYSLIST(2)'(1,1) EQ 'B')                              19040002
&S       SETC  '&SYSLIST(2)'(&B+1,&K-&B)                                19120002
         AGO   .SUBF                                                    19200002
.SUBE    ANOP                                                           19280002
         AIF   ('&SYSLIST(&OP,2)' EQ '').BACKUP                         19360002
&K       SETA  K'&SYSLIST(&OP,2)                                        19440002
&B       SETB  ('&SYSLIST(&OP,2)'(1,1) EQ 'B')                          19520002
&S       SETC  '&SYSLIST(&OP,2)'(&B+1,&K-&B)                            19600002
.SUBF    ANOP                                                           19680002
.BACKUP  ANOP                                                           19760002
&NRENTS  SETA  &NRENTS+1                                                19840002
         AIF   (&BYTESP GT 0 AND &BYTESP LT 16).SUB0                    19920002
         MNOTE '**NO. OF BYTES OUTSIDE RANGE OF 1-15**'                 20000002
         MEXIT                                                          20080002
.SUB0    AIF   (&SUB EQ 1).SUBG                                         20160002
         DC    AL.12(&SYSLIST(1)-&DSECT),XL.4'A'                        20240002
         AGO   .SUBH                                                    20320002
.SUBG    ANOP                                                           20400002
         DC    AL.12(&SYSLIST(&OP,1)-&DSECT),XL.4'A'                    20480002
.SUBH    ANOP                                                           20560002
         DC    BL.1'&B',FL.7'&S',AL.4(&BYTESP),FL.4'&CODE'              20640002
.OUT     ANOP                                                           20720002
&ITEMXPT     SETA  0                                                    20800002
         AIF   (&SUB EQ 0).OUTA                                         20880002
         AIF   (&OP LT N'&SYSLIST).LOOP                                 20960002
.OUTA    ANOP                                                           21040002
         MEND                                                           21120002
         MACRO                                                          21200002
         BIN   ,                                                        21280002
.*                                 &SYSLIST(&OP,1) - NAME OF LOG ITEM   21360002
.*                                      RECORD DSECT                    21440002
.*                                 $SYSLIST(&OP,2) - NBR OF SPACES      21520002
.*                                      TO SKIP ON MULTIPLE             21600002
.*                                      PRINT OR NBR OF SPACES          21680002
.*                                      TO BACK UP FROM COLUMN FOR      21760002
.*                                      START OF PRINTING. THE LETTER   21840002
.*                                      B PRECEEDS THE NUMBER (B5) IF   21920002
.*                                      THE LATTER IS DESIRED. OMISSION 22000002
.*                                      OF THIS OPERAND FORCES OPTION 2 22080002
.*                                      WITH BACKUP SPACING EQUAL TO    22160002
.*                                 THE NUMBER OF BITS IN THE ITEM       22240002
.*                                 DEFINITION (VIA MACRO 'DSGEN').      22320002
.*                            A LIMIT OF 15 BITS IS IMPOSED FOR THE     22400002
.*                                 TOTAL NUMBER OF BITS TO PRINT.       22480002
         GBLA  &BITS(2600),&DB,&DT,&INITIAL                             22560002
         GBLA  &ITEMITR,&ITEMFST(20),&ITEMNBR,&ITEMMDX                  22640002
         GBLA  &ITEMNDX(2600),&ITEMXPT                                  22720002
         GBLA  &LABELNR,&LASTCC,&LB,&LBLCTR(100),&LPTR,&LT              22800002
         GBLA  &NRENTS,&SHIFT(2600)                                     22880002
         GBLB  &DIAGITF,&DIAGLIN,&DIAGSET,&DIAGTST,&FSW,&TEST           22960002
         GBLC  &CARRCON,&CSECT,&DSECT,&ITEM(2600)                       23040002
         GBLC  &LABELS(2600),&LBL(100),&NRENTSX                         23120002
         LCLB  &B,&SUB                                                  23200002
         LCLA  &IBITS,&ISHIFT,&K                                        23280002
         LCLA  &TEMP,&T,&OP                                             23360002
         LCLC  &S,&ARG                                                  23440002
          ACTR  500000                                                  23520002
         AIF   (&DIAGTST EQ 0).NOMSG                                    23600002
         AIF   (&INITIAL EQ 0).NOMSG                                    23680002
         AIF   (&DIAGLIN EQ 1).NOMSG                                    23760002
         MNOTE '**NO LINE ASSOCIATED WITH THIS DATA**'                  23840002
*****THE FOLLOWING GENERATED FOR TEST PURPOSES*****                     23920002
*        LINE                                                           24000002
         LINE                                                           24080002
.NOMSG   ANOP                                                           24160002
         AIF   (K'&SYSLIST(1) EQ K'&SYSLIST(1,1)).LOOP                  24240002
&SUB     SETB  1                                                        24320002
.LOOP    ANOP                                                           24400002
&OP      SETA  &OP+1                                                    24480002
&ARG     SETC  '&SYSLIST(&OP,1)'                                        24560002
         ITEMFIND &ARG                                                  24640002
         AIF   (&ITEMXPT EQ 0).MEXIT                                    24720002
&ISHIFT  SETA  &SHIFT(&ITEMXPT)                                         24800002
&IBITS   SETA  &BITS(&ITEMXPT)                                          24880002
         AIF   (&SUB EQ 1).SUB00                                        24960002
         AIF   ('&SYSLIST(3)' EQ '').SETT                               25040002
&IBITS   SETA  &SYSLIST(3)                                              25120002
         AGO   .SETT                                                    25200002
.SUB00   AIF   ('&SYSLIST(&OP,3)' EQ '').SETT                           25280002
&IBITS   SETA  &SYSLIST(&OP,3)                                          25360002
.SETT    ANOP                                                           25440002
&T       SETA  &IBITS-1                                                 25520002
&B       SETB  0                                                        25600002
         AIF   (&IBITS GT 0 AND &IBITS LT 16).SUB0                      25680002
         MNOTE '**NO. OF BITS OUTSIDE RANGE OF 1-15**'                  25760002
.MEXIT   MEXIT                                                          25840002
.SUB0    AIF   (&SUB EQ 1).SUBA                                         25920002
         AIF   ('&SYSLIST(2)' EQ '').BACKUP                             26000002
&K       SETA  K'&SYSLIST(2)                                            26080002
&B       SETB  ('&SYSLIST(2)'(1,1) EQ 'B')                              26160002
&S       SETC  '&SYSLIST(2)'(&B+1,&K-&B)                                26240002
         AGO   .SUBB                                                    26320002
.SUBA    ANOP                                                           26400002
         AIF   ('&SYSLIST(&OP,2)' EQ '').BACKUP                         26480002
&K       SETA  K'&SYSLIST(&OP,2)                                        26560002
&B       SETB  ('&SYSLIST(&OP,2)'(1,1) EQ 'B')                          26640002
&S       SETC  '&SYSLIST(&OP,2)'(&B+1,&K-&B)                            26720002
.SUBB    ANOP                                                           26800002
&T       SETA  &S                                                       26880002
.BACKUP  ANOP                                                           26960002
&NRENTS  SETA  &NRENTS+1                                                27040002
&TEMP    SETA  &ISHIFT                                                  27120002
         AIF   (&IBITS NE 1 OR &B NE 0).BIN2                            27200002
         DC    AL.12(&SYSLIST(&OP,1)-&DSECT),XL.4'&TEMP'                27280002
         AGO   .OUT                                                     27360002
         AIF   (&SUB EQ 1).BIN2                                         27440002
         AIF   ('&SYSLIST(2)' NE '').BIN3                               27520002
         AGO   .BIN2A                                                   27600002
.BIN2    AIF   ('&SYSLIST(&OP,2)' NE '').BIN3                           27680002
.BIN2A   ANOP                                                           27760002
&B       SETB  1                                                        27840002
.BIN3    ANOP                                                           27920002
         DC    AL.12(&SYSLIST(&OP,1)-&DSECT),XL.4'C'                    28000002
         DC    BL.1'&B',AL.7(&T),AL.4(&IBITS),FL.4'&ISHIFT'             28080002
.OUT     ANOP                                                           28160002
&ITEMXPT     SETA  0                                                    28240002
         AIF   (&SUB EQ 0).OUTA                                         28320002
         AIF   (&OP LT N'&SYSLIST).LOOP                                 28400002
.OUTA    ANOP                                                           28480002
         MEND                                                           28560002
         MACRO                                                          28640002
&NAME    LINE  &DATA,&LABEL,&SKIP=                                      28720002
.*                            THIS MACRO ESTABLISHES THE MARGINS OR     28800002
.*                                 COLUMN SETTINGS FOR EACH LINE. IT    28880002
.*                                 GENERATES NECESSARY CARRIAGE CONTROL 28960002
.*                                 ENTRIES. LASTLY IT DETERMINES THE    29040002
.*                                 NUMBER OF ENTRIES ASSOCIATED WITH    29120002
.*                                 THE PREVIOUS LINE AND STORES THAT #  29200002
.*                                 INTO THE APPROPRIATE BYTE.           29280002
.*                            &DATA(1) - CHARACTER POSITION TO BEGIN    29360002
.*                                 DATA.                                29440002
.*                            &DATA(2) - # OF SPACES BETWEEN SUCCESSIVE 29520002
.*                                 DATA COLUMN STARTING CHARACTERS.     29600002