         TITLE 'IFCEXXXA - EDIT TABLE - LINKNAME=IFCE2400,ALIASES=IFCE3C00075002
               211,IFCE3540'                                            00105002
*  DSGEN MACRO     DSGEN MACRO     DSGEN MACRO     DSGEN MACRO        * 00150002
         SPACE 2                                                        00225002
         SPACE 2                                                        00300002
*  LINE MACRO     LINE MACRO     LINE MACRO     LINE MACRO            * 00375002
         MACRO                                                          00450002
&NAME    LINE  &DATA,&LABEL,&SKIP=                                      00525002
.*                            THIS MACRO ESTABLISHES THE MARGINS OR     00600002
.*                                 COLUMN SETTINGS FOR EACH LINE. IT    00675002
.*                                 GENERATES NECESSARY CARRIAGE CONTROL 00750002
.*                                 ENTRIES. LASTLY IT DETERMINES THE    00825002
.*                                 NUMBER OF ENTRIES ASSOCIATED WITH    00900002
.*                                 THE PREVIOUS LINE AND STORES THAT #  00975002
.*                                 INTO THE APPROPRIATE BYTE.           01050002
.*                                 &DATA(1) - CHARACTER POSITION TO     01125002
.*                                 BEGIN DATA.                          01200002
.*                                                                      01275002
.*                                 &DATA(2) - # OF SPACES BETWEEN       01350002
.*                                 SUCCESSIVE DATA COLUMN STARTING      01425002
.*                                 CHARACTERS.                          01500002
.*                                                                      01575002
.*                                 &LABEL(1) - CHARACTER POSITION       01650002
.*                                 TO BEGIN LABELS.                     01725002
.*                                                                      01800002
.*                                 &LABEL(2) - # OF SPACES BETWEEN      01875002
.*                                 LINE'S LABEL STARTING CHARACTERS.    01950002
.*                                                                      02025002
.*                                 &SKIP= - # OF LINES TO ADVANCE       02100002
.*                                 CARRIAGE TO BEGIN NEXT PRINTED LINE. 02175002
.*                                                                      02250002
.*                                 NEW ENTRIES ARE GENERATED ONLY WHEN  02325002
.*                                 NECESSARY. OMISSION OF ITEMS MEANS   02400002
.*                                 THEY HAVE NOT CHANGED SINCE PREVIOUS 02475002
.*                                 SETTINGS. A LINE MACRO IS REQUIRED   02550002
.*                                 FOR EACH PRINTED LINE. IF NO SETTING 02625002
.*                                 CHANGES ARE REQUIRED ALL OPERANDS    02700002
.*                                 ARE OMITTED IN WHICH CASE ONLY THE   02775002
.*                                 # OF ENTRIES FOR THE PREVIOUS LINE   02850002
.*                                 FIRST MACRO INSTRUCTION ISSUED FOR   02925002
.*                                 THE SUBJECT LINE.                    03000002
         GBLA  &DB,&DT,&LB,&LT,&NRENTS                                  03075002
         GBLA  &LASTCC,&INITIAL                                         03150002
         GBLC  &NRENTSX                                                 03225002
         GBLC  &CARRCON                                                 03300002
         GBLB  &TEST                                                    03375002
         LCLA  &S                                                       03450002
&NAME    DS    0C                                                       03525002
         AIF   (&INITIAL EQ 0).FIRSTLN                                  03600002
         LINEND                                                         03675002
         AGO   .NTFIRST                                                 03750002
.FIRSTLN ANOP                                                           03825002
&NRENTSX SETC  'N&SYSNDX'                                               03900002
&INITIAL SETA  1                                                        03975002
&LASTCC  SETA  1                                                        04050002
N&SYSNDX EQU   *                                                        04125002
.NTFIRST ANOP                                                           04200002
         DC    AL1(0)                                                   04275002
         AIF   ('&DATA(1)' EQ '').CKDTABS                               04350002
         AIF   ('&DATA'(1,1) NE '(').SLABEL                             04425002
         AIF   (&DATA(1) EQ &DB).CKDTABS                                04500002
&DB      SETA  &DATA(1)                                                 04575002
         AGO   .AA                                                      04650002
.CKDTABS AIF   ('&DATA(2)' EQ '').NCDATA                                04725002
         AIF   (&DATA(2) EQ &DT).NCDATA                                 04800002
         AGO   .CC                                                      04875002
.AA      AIF   ('&DATA(2)' EQ '').BB                                    04950002
         AIF   (&DATA(2) EQ &DT).BB                                     05025002
.CC      ANOP                                                           05100002
&DT      SETA  &DATA(2)                                                 05175002
.BB      DC    XL2'FFFE'                                                05250002
         DC    FL1'&DB'                                                 05325002
         DC    FL1'&DT'                                                 05400002
&NRENTS  SETA  &NRENTS+1                                                05475002
.NCDATA  ANOP                                                           05550002
         AIF   ('&LABEL(1)' EQ '').CKLTABS                              05625002
         AIF   ('&LABEL'(1,1) NE '(').SLABEL                            05700002
         AIF   (&LABEL(1) EQ &LB).CKLTABS                               05775002
&LB      SETA  &LABEL(1)                                                05850002
         AGO   .AAA                                                     05925002
.CKLTABS AIF   ('&LABEL(2)' EQ '').NCLABEL                              06000002
         AIF   (&LABEL(2) EQ &LT).NCLABEL                               06075002
         AGO   .CCC                                                     06150002
.AAA     AIF   ('&LABEL(2)' EQ '').BBB                                  06225002
         AIF   (&LABEL(2) EQ &LT).BBB                                   06300002
.CCC     ANOP                                                           06375002
&LT      SETA  &LABEL(2)                                                06450002
.BBB     DC    XL2'FFFF'                                                06525002
         DC    FL1'&LB'                                                 06600002
         DC    FL1'&LT'                                                 06675002
&NRENTS  SETA  &NRENTS+1                                                06750002
.NCLABEL ANOP                                                           06825002
         AIF   ('&SKIP' EQ 'E').EJECT                                   06900002
         AIF   ('&SKIP' EQ '').TESTOFF                                  06975002
.CONT    ANOP                                                           07050002
         AIF   (&TEST EQ 0).AB                                          07125002
         AIF   (&SKIP EQ &LASTCC).TESTOFF                               07200002
&S       SETA  &SKIP                                                    07275002
         ORG   &CARRCON+3                                               07350002
         DC    AL.3(0),AL.2(&S),AL.3(1)                                 07425002
         ORG                                                            07500002
&LASTCC  SETA  &S                                                       07575002
.SLABEL  ANOP                                                           07650002
.TESTOFF ANOP                                                           07725002
&TEST    SETB  0                                                        07800002
         AGO   .DD                                                      07875002
.EJECT   DC    XL2'FFFB'                                                07950002
&NRENTS  SETA  &NRENTS+1                                                08025002
         DC    X'8B'              SKIP TO CHANNEL 1                     08100002
         DC    AL.3(0),AL.2(&LASTCC),AL.3(1)                            08175002
&TEST    SETB  1                                                        08250002
         AGO   .DD                                                      08325002
.AB      AIF   (&SKIP EQ &LASTCC).NOCHANG                               08400002
A&SYSNDX DC    XL2'FFFB'                                                08475002
         DC    AL.3(0),AL.2(&SKIP),AL.3(1)                              08550002
         DC    AL.3(0),AL.2(&SKIP),AL.3(1)                              08625002
&LASTCC  SETA  &SKIP                                                    08700002
&TEST    SETB  1                                                        08775002
&CARRCON SETC  'A&SYSNDX'                                               08850002
&NRENTS  SETA  &NRENTS+1                                                08925002
.DD      ANOP                                                           09000002
.NOCHANG ANOP                                                           09075002
         MEND                                                           09150002
         EJECT                                                          09225002
         SPACE 2                                                        09300002
*  ROUTINE MACRO     ROUTINE MACRO     ROUTINE MACRO     ROUTINE MACRO* 09375002
         MACRO                                                          09450002
&NAME    ROUTINE &LOGITEM,&RNAME                                        09525002
         GBLC  &DSECT,&CSECT                                            09600002
         GBLC  &ITEM(1000)                                              09675002
         GBLA  &SHIFT(1000),&ITEMNBR                                    09750002
         GBLA  &NRENTS                                                  09825002
         LCLA  &ISHIFT,&NDX                                             09900002
.LOOP    ANOP                                                           09975002
&NDX     SETA  &NDX+1                                                   10050002
         AIF   ('&ITEM(&NDX)' EQ '&LOGITEM').FOUND                      10125002
         AIF   (&NDX LT &ITEMNBR).LOOP                                  10200002
         MNOTE *,'LOG ITEM NOT DEFINED'                                 10275002
         MEXIT                                                          10350002
.FOUND   ANOP                                                           10425002
&ISHIFT  SETA  &SHIFT(&NDX)                                             10500002
&NAME    DC    AL.12(&LOGITEM-&DSECT),XL.4'D'                           10575002
         DC    AL.4(&ISHIFT),AL.12(&RNAME-&CSECT)                       10650002
&NRENTS  SETA  &NRENTS+1                                                10725002
         MEND                                                           10800002
*  DSGEN MACRO     DSGEN MACRO     DSGEN MACRO     DSGEN MACRO        * 10875002
         SPACE 2                                                        10950002
         MACRO                                                          11025002
&NAME    DSGEN &X1,&X2,&X3,&X4,&X5,&X6,&X7,&X8,&X9,&X10,&X11,&X12,&X13,X11100002
               &X14,&X15,&X16,&X17,&X18,&X19,&X20,&X21,&X22,&X23,&X24, X11175002
               &X25,&X26,&X27,&X28,&X29,&X30,&X31,&X32                  11250002
.*                            THIS MACRO GENERATES ONE DSECT WORD       11325002
.*                                 FORMATTED FOR THE SUBJECT LOG RECORD 11400002
.*                                 EACH OPERAND HAS TWO SUB LISTS. THE  11475002
.*                                 FIRST IS THE NAME OF THE LOG ITEM    11550002
.*                                 WHILE THE SECOND IS THE # OF BITS TO 11625002
.*                                 ALLOCATE FOR THIS ITEM. ITEMS MUST   11700002
.*                                 BE DEFINED CONTIGUOUSLY WITHOUT GAPS 11775002
.*                                 UNUSED BIT GROUPS MUST BE GIVEN      11850002
.*                                 DUMMY NAMES. THE NAMES PROVIDED FOR  11925002
.*                                 THE LOG ITEMS MAY THEN BE USED IN    12000002
.*                                 THE CONVERSION MACRO INSTRUCTIONS.   12075002
         GBLC &ITEM(1000)                                               12150002
         GBLA &ITEMNBR,&BITS(1000),&SHIFT(1000)                         12225002
         LCLC  &SYMBOL                                                  12300002
         LCLA  &OP,&COUNT,&BYTE                                         12375002
.LOOP    ANOP                                                           12450002
&OP      SETA  &OP+1                                                    12525002
&ITEMNBR SETA  &ITEMNBR+1                                               12600002
&SYMBOL  SETC  '&SYSLIST(&OP,1)'                                        12675002
         AIF   ('&SYSLIST(&OP,2)' NE '').OK1                            12750002
         MNOTE *,'NULL BIT COUNT FIELD'                                 12825002
         MEXIT                                                          12900002
.OK1     ANOP                                                           12975002
         AIF   ('&SYMBOL' NE '').OK                                     13050002
         MNOTE 'LOG ITEM SYMBOL NOT PROVIDED'                           13125002
         AGO   .CNT                                                     13200002
.OK      ANOP                                                           13275002
         AIF   ('&SYMBOL'(1,1) EQ '''').CNT                *TEMP*       13350002
&SYMBOL  EQU   *+&BYTE                                                  13425002
&ITEM(&ITEMNBR)  SETC '&SYSLIST(&OP,1)'                                 13500002
&BITS(&ITEMNBR) SETA &SYSLIST(&OP,2)                                    13575002
&SHIFT(&ITEMNBR) SETA &COUNT-&BYTE*8                                    13650002
.CNT     ANOP                                                           13725002
&COUNT   SETA  &COUNT+&SYSLIST(&OP,2)                                   13800002
&BYTE    SETA  &COUNT/8                                                 13875002
         AIF (&OP LT N'&SYSLIST).LOOP                                   13950002
         AIF   (&COUNT NE 32).NOT32                                     14025002
&NAME    DS    4C                                                       14100002
         MEXIT                                                          14175002
.NOT32   AIF   (&COUNT NE 64).ERR                                       14250002
&NAME    DS    8C                                                       14325002
         MEXIT                                                          14400002
.ERR     MNOTE '**BIT COUNT FIELDS DO NOT TOTAL 32 OR 64**'             14475002
         MEND                                                           14550002
         MACRO                                                          14625002
         LINEND                                                         14700002
.*                            THIS MACRO IS USED ONLY BY THE LINE       14775002
.*                                 MACRO TO SET THE NUMBER OF ENTRIES   14850002
.*                                 ASSOCIATED WITH EACH LINE.           14925002
         GBLA  &NRENTS                                                  15000002
         GBLC &NRENTSX                                                  15075002
         ORG   &NRENTSX                                                 15150002
         DC    FL1'&NRENTS'                                             15225002
         ORG                                                            15300002
&NRENTS  SETA  0                                                        15375002
B&SYSNDX EQU   *                                                        15450002
&NRENTSX SETC  'B&SYSNDX'                                               15525002
         MEND                                                           15600002
         SPACE 2                                                        15675002
         EJECT                                                          15750002
*  LABEL MACRO     LABEL MACRO     LABEL MACRO     LABEL MACRO        * 15825002
         SPACE 2                                                        15900002
         MACRO                                                          15975002
&NAME    LABEL &LABEL1,&LABEL2,&LABEL3,&LABEL4,&LABEL5,&LABEL6,        C16050002
               &LABEL7,&LABEL8                                          16125002
.*                            THIS MACRO ALLOWS UP TO ACHT LABELS TO    16200002
.*                                 BE SPECIFIED FOR A GIVEN LINE. THE   16275002
.*                                 LABELS SHOULD BE ENCLOSED IN QUOTA-  16350002
.*                                 TION MARKS. THE COLUMN AND LINE END  16425002
.*                                 CONTROLS WILL BE INSERTED BY THE     16500002
.*                                 MACRO. OMITTED OPERANDS MEAN NO      16575002
.*                                 LABEL REQUIRED FOR RESPECTIVE        16650002
.*                                 COLUMN. THIS MACRO WILL ALSO ALERT   16725002
.*                                 THE PROGRAMMER TO EXACTLY WHERE THE  16800002
.*                                 TABLE MUST BE BROKEN IF NECESSARY    16875002
.*                                 TO AVOID EXCEEDING THE MAXIMUM LIMIT 16950002
         GBLC &LABELS(2000)                                             17025002
         GBLC  &LBL(100)                                                17100002
         GBLA  &LBLCTR(100)                                             17175002
         GBLA  &LABELNR                                                 17250002
         GBLA  &NRENTS,&LPTR                                            17325002
         LCLC  &MARGIN,&TACK                                            17400002
         LCLC  &TEXT                                                    17475002
         LCLA  &OP,&K,&START,&NRCHAR,&REMAIN                            17550002
&MARGIN  SETC  '*'                                                      17625002
         AIF   ('&NAME' EQ '').LOOPOUT                                  17700002
&LPTR    SETA  &LPTR+1                                                  17775002
&LBL(&LPTR) SETC '&NAME'                                                17850002
&LBLCTR(&LPTR) SETA &LABELNR+1                                          17925002
.LOOPOUT ANOP                                                           18000002
&OP      SETA  &OP+1                                                    18075002
&K       SETA  K'&SYSLIST(&OP)                                          18150002
         AIF (&K GE 2).NORM                                             18225002
&K       SETA  2                                                        18300002
.NORM    ANOP                                                           18375002
&START   SETA  2                                                        18450002
         AIF (&OP LT N'&SYSLIST).NOTLAST                                18525002
&MARGIN  SETC  '$'                                                      18600002
.NOTLAST ANOP                                                           18675002
&NRCHAR  SETA  8                                                        18750002
&TACK    SETC  ''                                                       18825002
.LOOPIN  ANOP                                                           18900002
&REMAIN  SETA  &K-&START                                                18975002
         AIF (&REMAIN GE 8).MORE                                        19050002
&TACK    SETC  '&MARGIN'                                                19125002
&NRCHAR  SETA  &REMAIN                                                  19200002
.MORE    ANOP                                                           19275002
&TEXT    SETC  ''                                                       19350002
         AIF (&REMAIN EQ 0).ENDTEXT                                     19425002
&TEXT    SETC  '&SYSLIST(&OP)'(&START,&NRCHAR)                          19500002
.ENDTEXT ANOP                                                           19575002
&LABELNR SETA  &LABELNR+1                                               19650002
&LABELS(&LABELNR) SETC '&TEXT'.'&TACK'                                  19725002
&START   SETA  &START+8                                                 19800002
         AIF ('&TACK' EQ '').LOOPIN                                     19875002
         AIF ('&TACK' EQ '*').LOOPOUT                                   19950002
         MEND                                                           20025002
         SPACE 2                                                        20100002
         MACRO                                                          20175002
         LSTART                                                         20250002
.*                            THIS MACRO IS ISSUED WHEN THE LABEL AREA  20325002
.*                                 OF THE TABLE IS TO BEGIN.            20400002
         GBLC &LABELS(2000)                                             20475002
         GBLA  &LABELNR                                                 20550002
         GBLC  &LBL(100)                                                20625002
         GBLA  &LBLCTR(100)                                             20700002
         LCLA  &NDX,&CTR                                                20775002
         LINEND                                                         20850002
&CTR     SETA  1                                                        20925002
.LOOP    ANOP                                                           21000002
&NDX     SETA  &NDX+1                                                   21075002
         AIF   (&LBLCTR(&CTR) NE &NDX).NOLBL                            21150002
&LBL(&CTR) DC  C'&LABELS(&NDX)'                                         21225002
&CTR     SETA  &CTR+1                                                   21300002
         AGO   .LOOPCTL                                                 21375002
.NOLBL   ANOP                                                           21450002
         DC    C'&LABELS(&NDX)'                                         21525002
.LOOPCTL AIF   (&NDX LT &LABELNR).LOOP                                  21600002
         MEND                                                           21675002
         SPACE 2                                                        21750002
*  BIN MACRO     BIN MACRO     BIN MACRO     BIN MACRO     BIN MACRO  * 21825002
         SPACE 2                                                        21900002
         MACRO                                                          21975002
         BIN   &LOGITEM,&SKIP$OR                                        22050002
.*                                 &LOGITEM - NAME OF ITEM IN LOG       22125002
.*                                      RECORD DSECT                    22200002
.*                                 &SKIP$OR - NBR OF SPACES TO SKIP ON  22275002
.*                                 MULTIPLE PRINT OR NBR OF SPACES      22350002
.*                                      TO BACK UP FROM COLUMN FOR      22425002
.*                                      START OF PRINTING. THE LETTER   22500002
.*                                      B PRECEEDS THE NUMBER (B5) IF   22575002
.*                                      THE LATTER IS DESIRED. OMISSION 22650002
.*                                      OF THIS OPERAND FORCES OPTION 2 22725002
.*                                      WITH BACKUP SPACING EQUAL TO    22800002
.*                                 THE NUMBER OF BITS IN THE ITEM       22875002
.*                                 DEFINITION (VIA MACRO 'DSGEN').      22950002
.*                            A LIMIT OF 15 BITS IS IMPOSED FOR THE     23025002
.*                                 TOTAL NUMBER OF BITS TO PRINT.       23100002
         GBLC &ITEM(1000)                                               23175002
         GBLA &ITEMNBR,&BITS(1000),&SHIFT(1000),&NRENTS                 23250002
         GBLC  &DSECT                                                   23325002
         LCLB  &B                                                       23400002
         LCLA  &IBITS,&NDX,&ISHIFT,&K                                   23475002
         LCLA  &TEMP,&T                                                 23550002
         LCLC  &S                                                       23625002
.LOOP    ANOP                                                           23700002
&NDX     SETA  &NDX+1                                                   23775002
         AIF   ('&ITEM(&NDX)' EQ '&LOGITEM').FOUND                      23850002
         AIF   (&NDX LT &ITEMNBR).LOOP                                  23925002
         MNOTE *,'YOU BLEW IT'                                          24000002
         ROUTINE DUM,SKIPPER                                            24075002
         MEXIT                                                          24150002
.FOUND   ANOP                                                           24225002
&ISHIFT  SETA  &SHIFT(&NDX)                                             24300002
&IBITS   SETA  &BITS(&NDX)                                              24375002
&T       SETA  &IBITS-1                                                 24450002
&B       SETB  0                                                        24525002
         AIF   ('&SKIP$OR' EQ '').BACKUP                                24600002
&K       SETA  K'&SKIP$OR                                               24675002
&B       SETB  ('&SKIP$OR'(1,1) EQ 'B')                                 24750002
&S       SETC  '&SKIP$OR'(&B+1,&K-&B)                                   24825002
&T       SETA  &S                                                       24900002
.BACKUP  ANOP                                                           24975002
&NRENTS  SETA  &NRENTS+1                                                25050002
&TEMP    SETA  &ISHIFT                                                  25125002
A&SYSNDX DC    AL.12(&LOGITEM-&DSECT),XL.4'&TEMP'                       25200002
         AIF (&IBITS EQ 1 AND &B EQ 0).OUT                              25275002
         ORG   A&SYSNDX                                                 25350002
&B       SETB  1                                                        25425002
         DC    AL.12(&LOGITEM-&DSECT),XL.4'C'                           25500002
         DC    BL.1'&B',AL.7(&T),AL.4(&IBITS),FL.4'&ISHIFT'             25575002
.OUT     ANOP                                                           25650002
         MEND                                                           25725002
         EJECT                                                          25800002
*  HEX MACRO     HEX MACRO     HEX MACRO    HEXN MACRO     HEX MACRO  * 25875002
         SPACE 2                                                        25950002
         MACRO                                                          26025002
         HEX   &LOGITEM,&SKIP$OR,&BYTES                                 26100002
.*                            THIS MACRO FACILITATES GENERATION OF THE  26175002
.*                                 TABLE ENTRIES SPECIFYING HEX TYPE    26250002
.*                                 CONVERSIONS.                         26325002
.*                            &LOGITEM - NAME OF DATA ITEM TO BE        26400002
.*                                 CONVERTED                            26475002
.*                            &SKIP$OR - NUMBER OF SPACES TO SKIP ON    26550002
.*                                 MULTIPLE PRINT OR NBR OF SPACES TO   26625002
.*                                 BACK UP FROM COLUMN FOR START OF     26700002
.*                                 PRINTING. THE LETTER B PRECEEDS THE  26775002
.*                                 NUMBER (B8) IF THE LATTER OPTION IS  26850002
.*                                 DESIRED. OMISSION OF THIS OPERAND    26925002
.*                                 FORCES OPTION 2 WITH BACKUP SPACING  27000002
.*                                 EQUAL TO THE NUMBER OF BYTES SPECI-  27075002
.*                                 FIED BY THE NEXT OPERAND (TWICE THIS 27150002
.*                                 NUMBER IF SUFFIX IS EXPLICITLY OR    27225002
.*                                 IMPLICITLY B).                       27300002
.*                            &BYTES - NUMBER OF TOTAL INPUT BYTES TO   27375002
.*                                 PROCESS. THIS NUMBER IS SUFFIXED     27450002
.*                                 WITH AN L,R, OR B TO STIPULATE       27525002
.*                                 PRINTING OF THE LEFT HALF, RIGHT     27600002
.*                                 HALF, OR BOTH HALVES OF THE BYTE     27675002