*  DSGEN MACRO     DSGEN MACRO     DSGEN MACRO     DSGEN MACRO        * 00080002
         SPACE 2                                                        00160002
         MACRO                                                          00240002
&NAME    DSGEN &X1,&X2,&X3,&X4,&X5,&X6,&X7,&X8,&X9,&X10,&X11,&X12,&X13,X00320002
               &X14,&X15,&X16,&X17,&X18,&X19,&X20,&X21,&X22,&X23,&X24, X00400002
               &X25,&X26,&X27,&X28,&X29,&X30,&X31,&X32                  00480002
.*                            THIS MACRO GENERATES ONE DSECT WORD       00560002
.*                                 FORMATTED FOR THE SUBJECT LOG RECORD 00640002
.*                                 EACH OPERAND HAS TWO SUB LISTS. THE  00720002
.*                                 FIRST IS THE NAME OF THE LOG ITEM    00800002
.*                                 WHILE THE SECOND IS THE # OF BITS TO 00880002
.*                                 ALLOCATE FOR THIS ITEM. ITEMS MUST   00960002
.*                                 BE DEFINED CONTIGUOUSLY WITHOUT GAPS 01040002
.*                                 UNUSED BIT GROUPS MUST BE GIVEN      01120002
.*                                 DUMMY NAMES. THE NAMES PROVIDED FOR  01200002
.*                                 THE LOG ITEMS MAY THEN BE USED IN    01280002
.*                                 THE CONVERSION MACRO INSTRUCTIONS.   01360002
         GBLC &ITEM(1000)                                               01440002
         GBLA &ITEMNBR,&BITS(1000),&SHIFT(1000)                         01520002
         LCLC  &SYMBOL                                                  01600002
         LCLA  &OP,&COUNT,&BYTE                                         01680002
.LOOP    ANOP                                                           01760002
&OP      SETA  &OP+1                                                    01840002
&ITEMNBR SETA  &ITEMNBR+1                                               01920002
&SYMBOL  SETC  '&SYSLIST(&OP,1)'                                        02000002
         AIF   ('&SYSLIST(&OP,2)' NE '').OK1                            02080002
         MNOTE *,'NULL BIT COUNT FIELD'                                 02160002
         MEXIT                                                          02240002
.OK1     ANOP                                                           02320002
         AIF   ('&SYMBOL' NE '').OK                                     02400002
         MNOTE 'LOG ITEM SYMBOL NOT PROVIDED'                           02480002
         AGO   .CNT                                                     02560002
.OK      ANOP                                                           02640002
         AIF   ('&SYMBOL'(1,1) EQ '''').CNT                *TEMP*       02720002
&SYMBOL  EQU   *+&BYTE                                                  02800002
&ITEM(&ITEMNBR)  SETC '&SYSLIST(&OP,1)'                                 02880002
&BITS(&ITEMNBR) SETA &SYSLIST(&OP,2)                                    02960002
&SHIFT(&ITEMNBR) SETA &COUNT-&BYTE*8                                    03040002
.CNT     ANOP                                                           03120002
&COUNT   SETA  &COUNT+&SYSLIST(&OP,2)                                   03200002
&BYTE    SETA  &COUNT/8                                                 03280002
         AIF (&OP LT N'&SYSLIST).LOOP                                   03360002
         AIF   (&COUNT NE 32).NOT32                                     03440002
&NAME    DS    4C                                                       03520002
         MEXIT                                                          03600002
.NOT32   AIF   (&COUNT NE 64).ERR                                       03680002
&NAME    DS    8C                                                       03760002
         MEXIT                                                          03840002
.ERR     MNOTE '**BIT COUNT FIELDS DO NOT TOTAL 32 OR 64**'             03920002
         MEND                                                           04000002
         EJECT                                                          04080002
*  LINE MACRO     LINE MACRO     LINE MACRO     LINE MACRO            * 04160002
         SPACE 2                                                        04240002
         MACRO                                                          04320002
&NAME    LINE  &DATA,&LABEL,&SKIP=                                      04400002
.*                            THIS MACRO ESTABLISHES THE MARGINS OR     04480002
.*                                 COLUMN SETTINGS FOR EACH LINE. IT    04560002
.*                                 GENERATES NECESSARY CARRIAGE CONTROL 04640002
.*                                 ENTRIES. LASTLY IT DETERMINES THE    04720002
.*                                 NUMBER OF ENTRIES ASSOCIATED WITH    04800002
.*                                 THE PREVIOUS LINE AND STORES THAT #  04880002
.*                                 INTO THE APPROPRIATE BYTE.           04960002
.*                            &DATA(1) - CHARACTER POSITION TO BEGIN    05040002
.*                                 DATA.                                05120002
.*                            &DATA(2) - # OF SPACES BETWEEN SUCCESSIVE 05200002
.*                                 DATA COLUMN STARTING CHARACTERS.     05280002
.*                            &LABEL(1) - CHAR. POS. TO BEGIN LABELS.   05360002
.*                            &LABEL(2) - # SPACES BETWEEN LINE'S LABEL 05440002
.*                                 STARTING CHARACTERS.                 05520002
.*                            &SKIP= - # OF LINES TO ADVANCE CARRIAGE   05600002
.*                                 TO BEGIN NEXT PRINTED LINE.          05680002
.*                            NEW ENTRIES ARE GENERATED ONLY WHEN       05760002
.*                                 NECESSARY. OMISSION OF ITEMS MEANS   05840002
.*                                 THEY HAVE NOT CHANGED SINCE PREVIOUS 05920002
.*                                 SETTINGS. A LINE MACRO IS REQUIRED   06000002
.*                                 FOR EACH PRINTED LINE. IF NO SETTING 06080002
.*                                 CHANGES ARE REQUIRED ALL OPERANDS    06160002
.*                                 ARE OMITTED IN WHICH CASE ONLY THE   06240002
.*                                 # OF ENTRIES FOR THE PREVIOUS LINE   06320002
.*                                 IS COMPUTED. THIS MACRO MUST BE THE  06400002
.*                                 FIRST MACRO INSTRUCTION ISSUED FOR   06480002
.*                                 THE SUBJECT LINE                     06560002
         GBLA  &DB,&DT,&LB,&LT,&NRENTS                                  06640002
         GBLA  &LASTCC,&INITIAL                                         06720002
         GBLC  &NRENTSX                                                 06800002
         GBLC  &CARRCON                                                 06880002
         GBLB  &TEST                                                    06960002
         LCLA  &S                                                       07040002
&NAME    DS    0C                                                       07120002
         AIF   (&INITIAL EQ 0).FIRSTLN                                  07200002
         LINEND                                                         07280002
         AGO   .NTFIRST                                                 07360002
.FIRSTLN ANOP                                                           07440002
&NRENTSX SETC  'N&SYSNDX'                                               07520002
&INITIAL SETA  1                                                        07600002
N&SYSNDX EQU   *                                                        07680002
.NTFIRST ANOP                                                           07760002
         DC    AL1(0)                                                   07840002
         AIF   ('&DATA(1)' EQ '').CKDTABS                               07920002
         AIF   (&DATA(1) EQ &DB).CKDTABS                                08000002
&DB      SETA  &DATA(1)                                                 08080002
         AGO   .AA                                                      08160002
.CKDTABS AIF   ('&DATA(2)' EQ '').NCDATA                                08240002
         AIF   (&DATA(2) EQ &DT).NCDATA                                 08320002
         AGO   .CC                                                      08400002
.AA      AIF   ('&DATA(2)' EQ '').BB                                    08480002
         AIF   (&DATA(2) EQ &DT).BB                                     08560002
.CC      ANOP                                                           08640002
&DT      SETA  &DATA(2)                                                 08720002
.BB      DC    XL2'FFFE'                                                08800002
         DC    FL1'&DB'                                                 08880002
         DC    FL1'&DT'                                                 08960002
&NRENTS  SETA  &NRENTS+1                                                09040002
.NCDATA  ANOP                                                           09120002
         AIF   ('&LABEL(1)' EQ '').CKLTABS                              09200002
         AIF   (&LABEL(1) EQ &LB).CKLTABS                               09280002
&LB      SETA  &LABEL(1)                                                09360002
         AGO   .AAA                                                     09440002
.CKLTABS AIF   ('&LABEL(2)' EQ '').NCLABEL                              09520002
         AIF   (&LABEL(2) EQ &LT).NCLABEL                               09600002
         AGO   .CCC                                                     09680002
.AAA     AIF   ('&LABEL(2)' EQ '').BBB                                  09760002
         AIF   (&LABEL(2) EQ &LT).BBB                                   09840002
.CCC     ANOP                                                           09920002
&LT      SETA  &LABEL(2)                                                10000002
.BBB     DC    XL2'FFFF'                                                10080002
         DC    FL1'&LB'                                                 10160002
         DC    FL1'&LT'                                                 10240002
&NRENTS  SETA  &NRENTS+1                                                10320002
.NCLABEL ANOP                                                           10400002
         AIF   ('&SKIP' NE '').CONT                                     10480002
         AIF   (&TEST EQ 0).NOCHANG                                     10560002
&S       SETA  &LASTCC                                                  10640002
         AGO   .DEFAULT                                                 10720002
.CONT    ANOP                                                           10800002
         AIF   (&TEST EQ 0).AB                                          10880002
&S       SETA  &SKIP                                                    10960002
.DEFAULT ANOP                                                           11040002
         ORG   &CARRCON+3                                               11120002
         DC    AL.3(0),AL.2(&S),AL.3(1)                                 11200002
         ORG                                                            11280002
&LASTCC  SETA  &S                                                       11360002
&TEST    SETB  0                                                        11440002
         AGO   .DD                                                      11520002
.AB      AIF   (&SKIP EQ &LASTCC).NOCHANG                               11600002
A&SYSNDX DC    XL2'FFFB'                                                11680002
         DC    AL.3(0),AL.2(&SKIP),AL.3(1)                              11760002
         DC    FL1'9'                                                   11840002
&LASTCC  SETA  &SKIP                                                    11920002
&TEST    SETB  1                                                        12000002
&CARRCON SETC  'A&SYSNDX'                                               12080002
&NRENTS  SETA  &NRENTS+1                                                12160002
.DD      ANOP                                                           12240002
.NOCHANG ANOP                                                           12320002
         MEND                                                           12400002
         EJECT                                                          12480002
*  BIN MACRO     BIN MACRO     BIN MACRO     BIN MACRO     BIN MACRO  * 12560002
         SPACE 2                                                        12640002
         MACRO                                                          12720002
         BIN   &LOGITEM,&SKIP$OR                                        12800002
.*                                 &LOGITEM - NAME OF ITEM IN LOG       12880002
.*                                      RECORD DSECT                    12960002
.*                                 &SKIP$OR - NBR OF SPACES TO SKIP ON  13040002
.*                                 MULTIPLE PRINT OR NBR OF SPACES      13120002
.*                                      TO BACK UP FROM COLUMN FOR      13200002
.*                                      START OF PRINTING. THE LETTER   13280002
.*                                      B PRECEEDS THE NUMBER (B5) IF   13360002
.*                                      THE LATTER IS DESIRED. OMISSION 13440002
.*                                      OF THIS OPERAND FORCES OPTION 2 13520002
.*                                      WITH BACKUP SPACING EQUAL TO    13600002
.*                                 THE NUMBER OF BITS IN THE ITEM       13680002
.*                                 DEFINITION (VIA MACRO 'DSGEN').      13760002
.*                            A LIMIT OF 15 BITS IS IMPOSED FOR THE     13840002
.*                                 TOTAL NUMBER OF BITS TO PRINT.       13920002
         GBLC &ITEM(1000)                                               14000002
         GBLA &ITEMNBR,&BITS(1000),&SHIFT(1000),&NRENTS                 14080002
         GBLC  &DSECT                                                   14160002
         LCLB  &B                                                       14240002
         LCLA  &IBITS,&NDX,&ISHIFT,&K                                   14320002
         LCLA  &TEMP,&T                                                 14400002
         LCLC  &S                                                       14480002
.LOOP    ANOP                                                           14560002
&NDX     SETA  &NDX+1                                                   14640002
         AIF   ('&ITEM(&NDX)' EQ '&LOGITEM').FOUND                      14720002
         AIF   (&NDX LT &ITEMNBR).LOOP                                  14800002
         MNOTE *,'YOU BLEW IT'                                          14880002
         ROUTINE DUM,SKIPPER                                            14960002
         MEXIT                                                          15040002
.FOUND   ANOP                                                           15120002
&ISHIFT  SETA  &SHIFT(&NDX)                                             15200002
&IBITS   SETA  &BITS(&NDX)                                              15280002
&T       SETA  &IBITS-1                                                 15360002
&B       SETB  0                                                        15440002
         AIF   ('&SKIP$OR' EQ '').BACKUP                                15520002
&K       SETA  K'&SKIP$OR                                               15600002
&B       SETB  ('&SKIP$OR'(1,1) EQ 'B')                                 15680002
&S       SETC  '&SKIP$OR'(&B+1,&K-&B)                                   15760002
&T       SETA  &S                                                       15840002
.BACKUP  ANOP                                                           15920002
&NRENTS  SETA  &NRENTS+1                                                16000002
&TEMP    SETA  &ISHIFT                                                  16080002
A&SYSNDX DC    AL.12(&LOGITEM-&DSECT),XL.4'&TEMP'                       16160002
         AIF (&IBITS EQ 1 AND &B EQ 0).OUT                              16240002
         ORG   A&SYSNDX                                                 16320002
&B       SETB  1                                                        16400002
         DC    AL.12(&LOGITEM-&DSECT),XL.4'C'                           16480002
         DC    BL.1'&B',AL.7(&T),AL.4(&IBITS),FL.4'&ISHIFT'             16560002
.OUT     ANOP                                                           16640002
         MEND                                                           16720002
         EJECT                                                          16800002
*  HEX MACRO     HEX MACRO     HEX MACRO    HEXN MACRO     HEX MACRO  * 16880002
         SPACE 2                                                        16960002
         MACRO                                                          17040002
         HEX   &LOGITEM,&SKIP$OR,&BYTES                                 17120002
.*                            THIS MACRO FACILITATES GENERATION OF THE  17200002
.*                                 TABLE ENTRIES SPECIFYING HEX TYPE    17280002
.*                                 CONVERSIONS.                         17360002
.*                            &LOGITEM - NAME OF DATA ITEM TO BE        17440002
.*                                 CONVERTED                            17520002
.*                            &SKIP$OR - NUMBER OF SPACES TO SKIP ON    17600002
.*                                 MULTIPLE PRINT OR NBR OF SPACES TO   17680002
.*                                 BACK UP FROM COLUMN FOR START OF     17760002
.*                                 PRINTING. THE LETTER B PRECEEDS THE  17840002
.*                                 NUMBER (B8) IF THE LATTER OPTION IS  17920002
.*                                 DESIRED. OMISSION OF THIS OPERAND    18000002
.*                                 FORCES OPTION 2 WITH BACKUP SPACING  18080002
.*                                 EQUAL TO THE NUMBER OF BYTES SPECI-  18160002
.*                                 FIED BY THE NEXT OPERAND (TWICE THIS 18240002
.*                                 NUMBER IF SUFFIX IS EXPLICITLY OR    18320002
.*                                 IMPLICITLY B).                       18400002
.*                            &BYTES - NUMBER OF TOTAL INPUT BYTES TO   18480002
.*                                 PROCESS. THIS NUMBER IS SUFFIXED     18560002
.*                                 WITH AN L,R, OR B TO STIPULATE       18640002
.*                                 PRINTING OF THE LEFT HALF, RIGHT     18720002
.*                                 HALF, OR BOTH HALVES OF THE BYTE     18800002
.*                                 RESPECTIVELY. OMISSION OF THIS       18880002
.*                                 OPERAND DEFAULTS TO B WITH THE NUM-  18960002
.*                                 BER OF BYTES EQUAL TO THE ITEM LNGTH 19040002
.*                            A NEW ENTRY IS GENERATED ONLY WHEN NECES- 19120002
.*                                 SARY. THIS MACRO MUST BE THE FIRST   19200002
.*                                 MACRO INSTRUCTION ISSUED FOR THE     19280002
.*                                 SUBJECT LINE(S).                     19360002
         GBLC &ITEM(1000),&DSECT                                        19440002
         GBLA &ITEMNBR,&BITS(1000),&SHIFT(1000),&NRENTS                 19520002
         LCLB  &B                                                       19600002
         LCLA  &IBITS,&NDX,&ISHIFT,&K,&T,&CODE,&BYTESP                  19680002
         LCLC  &S,&LETTER                                               19760002
.LOOP    ANOP                                                           19840002
&NDX     SETA  &NDX+1                                                   19920002
         AIF   ('&ITEM(&NDX)' EQ '&LOGITEM').FOUND                      20000002
         AIF   (&NDX LT &ITEMNBR).LOOP                                  20080002
         MNOTE *,'LOG ITEM NOT DEFINED'                                 20160002
         MEXIT                                                          20240002
.FOUND   ANOP                                                           20320002
&ISHIFT  SETA  &SHIFT(&NDX)                                             20400002
&IBITS   SETA  &BITS(&NDX)                                              20480002
&CODE    SETA  1                                                        20560002
&K       SETA  K'&BYTES                                                 20640002
         AIF   (&IBITS-(&IBITS/4)*4 EQ 0).OK                            20720002
         MNOTE *,'BIT LENGTH SPECIFICATION INCONSISTENT WITH CONTROL'   20800002
         MEXIT                                                          20880002
.OK      AIF   ('&BYTES' EQ '').USEDEFN                                 20960002
&LETTER  SETC  '&BYTES'(&K,1)                                           21040002
&S       SETC  '&BYTES'(1,&K-1)                                         21120002
&BYTESP  SETA  &S                                                       21200002
         AIF   ('&LETTER' EQ 'B').BOTH                                  21280002
         AIF   (&ISHIFT EQ 0 OR &ISHIFT EQ 4).OK2                       21360002
.ERR     MNOTE *,'DATA NOT ALLIGNED ON HEX OR BYTE BOUNDARY'            21440002
         MEXIT                                                          21520002
.USEDEFN ANOP                                                           21600002
&BYTESP  SETA  &IBITS/8                                                 21680002
.BOTH    AIF   (&ISHIFT NE 0).ERR                                       21760002
&CODE    SETA  3                                                        21840002
&T       SETA  &BYTESP*2-1                                              21920002
&S       SETC  '&T'                                                     22000002
.OK2     AIF   (&ISHIFT EQ 0).L                                         22080002
&CODE    SETA  2                                                        22160002
.L       ANOP                                                           22240002
&B       SETB  1                                                        22320002
         AIF   ('&SKIP$OR' EQ '').BACKUP                                22400002
&K       SETA  K'&SKIP$OR                                               22480002
&B       SETB  ('&SKIP$OR'(1,1) EQ 'B')                                 22560002
&S       SETC  '&SKIP$OR'(&B+1,&K-&B)                                   22640002
.BACKUP  ANOP                                                           22720002
&NRENTS  SETA  &NRENTS+1                                                22800002
         DC    AL.12(&LOGITEM-&DSECT),XL.4'A'                           22880002
         DC    BL.1'&B',FL.7'&S',FL.4'&BYTESP',FL.4'&CODE'              22960002
.OUT     ANOP                                                           23040002
         MEND                                                           23120002
         SPACE 2                                                        23200002
*  ROUTINE MACRO     ROUTINE MACRO     ROUTINE MACRO     ROUTINE MACRO* 23280002
         SPACE 2                                                        23360002
         MACRO                                                          23440002
&NAME    ROUTINE &LOGITEM,&RNAME                                        23520002
         GBLC  &DSECT,&CSECT                                            23600002
         GBLC  &ITEM(1000)                                              23680002
         GBLA  &SHIFT(1000),&ITEMNBR                                    23760002
         GBLA  &NRENTS                                                  23840002
         LCLA  &ISHIFT,&NDX                                             23920002
.LOOP    ANOP                                                           24000002
&NDX     SETA  &NDX+1                                                   24080002
         AIF   ('&ITEM(&NDX)' EQ '&LOGITEM').FOUND                      24160002
         AIF   (&NDX LT &ITEMNBR).LOOP                                  24240002
         MNOTE *,'LOG ITEM NOT DEFINED'                                 24320002
         MEXIT                                                          24400002
.FOUND   ANOP                                                           24480002
&ISHIFT  SETA  &SHIFT(&NDX)                                             24560002
&NAME    DC    AL.12(&LOGITEM-&DSECT),XL.4'D'                           24640002
         DC    AL.4(&ISHIFT),AL.12(&RNAME-&CSECT)                       24720002
&NRENTS  SETA  &NRENTS+1                                                24800002
         MEND                                                           24880002
         EJECT                                                          24960002
*  LABEL MACRO     LABEL MACRO     LABEL MACRO     LABEL MACRO        * 25040002
         SPACE 2                                                        25120002
         MACRO                                                          25200002
&NAME    LABEL &LABEL1,&LABEL2,&LABEL3,&LABEL4,&LABEL5,&LABEL6,        C25280002
               &LABEL7,&LABEL8                                          25360002
.*                            THIS MACRO ALLOWS UP TO ACHT LABELS TO    25440002
.*                                 BE SPECIFIED FOR A GIVEN LINE. THE   25520002
.*                                 LABELS SHOULD BE ENCLOSED IN QUOTA-  25600002
.*                                 TION MARKS. THE COLUMN AND LINE END  25680002
.*                                 CONTROLS WILL BE INSERTED BY THE     25760002
.*                                 MACRO. OMITTED OPERANDS MEAN NO      25840002
.*                                 LABEL REQUIRED FOR RESPECTIVE        25920002
.*                                 COLUMN. THIS MACRO WILL ALSO ALERT   26000002
.*                                 THE PROGRAMMER TO EXACTLY WHERE THE  26080002
.*                                 TABLE MUST BE BROKEN IF NECESSARY    26160002
.*                                 TO AVOID EXCEEDING THE MAXIMUM LIMIT 26240002
         GBLC &LABELS(2000)                                             26320002
         GBLC  &LBL(100)                                                26400002
         GBLA  &LBLCTR(100)                                             26480002
         GBLA  &LABELNR                                                 26560002
         GBLA  &NRENTS,&LPTR                                            26640002
         LCLC  &MARGIN,&TACK                                            26720002
         LCLC  &TEXT                                                    26800002
         LCLA  &OP,&K,&START,&NRCHAR,&REMAIN                            26880002
&MARGIN  SETC  '*'                                                      26960002
         AIF   ('&NAME' EQ '').LOOPOUT                                  27040002
&LPTR    SETA  &LPTR+1                                                  27120002
&LBL(&LPTR) SETC '&NAME'                                                27200002
&LBLCTR(&LPTR) SETA &LABELNR+1                                          27280002
.LOOPOUT ANOP                                                           27360002
&OP      SETA  &OP+1                                                    27440002
&K       SETA  K'&SYSLIST(&OP)                                          27520002
         AIF (&K GE 2).NORM                                             27600002
&K       SETA  2                                                        27680002
.NORM    ANOP                                                           27760002
&START   SETA  2                                                        27840002
         AIF (&OP LT N'&SYSLIST).NOTLAST                                27920002
&MARGIN  SETC  '$'                                                      28000002
.NOTLAST ANOP                                                           28080002
&NRCHAR  SETA  8                                                        28160002
&TACK    SETC  ''                                                       28240002
.LOOPIN  ANOP                                                           28320002
&REMAIN  SETA  &K-&START                                                28400002
         AIF (&REMAIN GE 8).MORE                                        28480002
&TACK    SETC  '&MARGIN'                                                28560002
&NRCHAR  SETA  &REMAIN                                                  28640002
.MORE    ANOP                                                           28720002
&TEXT    SETC  ''                                                       28800002
         AIF (&REMAIN EQ 0).ENDTEXT                                     28880002
&TEXT    SETC  '&SYSLIST(&OP)'(&START,&NRCHAR)                          28960002
.ENDTEXT ANOP                                                           29040002
&LABELNR SETA  &LABELNR+1                                               29120002
&LABELS(&LABELNR) SETC '&TEXT'.'&TACK'                                  29200002
&START   SETA  &START+8                                                 29280002
         AIF ('&TACK' EQ '').LOOPIN                                     29360002
         AIF ('&TACK' EQ '*').LOOPOUT                                   29440002
         MEND                                                           29520002
         MACRO                                                          29600002