 TITLE 'IFCESOFT - SOFTWARE (ABEND) RECORD EDIT'                        00060002
         MACRO                                                          00120002
&NAME    DSGEN ,                                                        00180002
.*                            THIS MACRO GENERATES ONE DSECT WORD       00240002
.*                                 FORMATTED FOR THE SUBJECT LOG RECORD 00300002
.*                                 EACH OPERAND HAS TWO SUB LISTS. THE  00360002
.*                                 FIRST IS THE NAME OF THE LOG ITEM    00420002
.*                                 WHILE THE SECOND IS THE # OF BITS TO 00480002
.*                                 ALLOCATE FOR THIS ITEM. ITEMS MUST   00540002
.*                                 BE DEFINED CONTIGUOUSLY WITHOUT GAPS 00600002
.*                                 UNUSED BIT GROUPS MUST BE GIVEN      00660002
.*                                 DUMMY NAMES. THE NAMES PROVIDED FOR  00720002
.*                                 THE LOG ITEMS MAY THEN BE USED IN    00780002
.*                                 THE CONVERSION MACRO INSTRUCTIONS.   00840002
         GBLA  &BITS(2600),&DB,&DT,&INITIAL                             00900002
         GBLA  &ITEMITR,&ITEMFST(20),&ITEMNBR,&ITEMMDX                  00960002
         GBLA  &ITEMNDX(2600),&ITEMXPT                                  01020002
         GBLA  &LABELNR,&LASTCC,&LB,&LBLCTR(100),&LPTR,&LT              01080002
         GBLA  &NRENTS,&SHIFT(2600)                                     01140002
         GBLB  &DIAGITF,&DIAGLIN,&DIAGSET,&DIAGTST,&FSW,&TEST           01200002
         GBLC  &CARRCON,&CSECT,&DSECT,&ITEM(2600)                       01260002
         GBLC  &LABELS(2600),&LBL(100),&NRENTSX                         01320002
         LCLB  &ONLY1,&CTIND                                            01380002
         LCLA  &START1,&START2,&END1,&END2                              01440002
         LCLC  &SYMBOL,&EQUSYM                                          01500002
         LCLA  &OP,&COUNT,&BYTE,&EQUCNT                                 01560002
         ACTR  100000                                                   01620002
         AIF   (&ITEMITR EQ 0).START                                    01680002
 MNOTE   20,'DSGEN MACRO OCCURRS AFTER ITEMSORT MACRO HAS BEEN ISSUED.' 01740002
         MEXIT                                                          01800002
.START   AIF   (N'&SYSLIST(&OP+1) LT 3).LOOP                            01860002
         AIF   ('&SYSLIST(&OP+1,3)' EQ 'EQU').LOOP     TEST FOR EQU     01920002
  AIF   ('&SYSLIST(&OP+1,3)' EQ '' OR '&SYSLIST(&OP+1,4)' EQ '').ERR1   01980002
         AIF   ('&SYSLIST(&OP+1,3)' GT '&SYSLIST(&OP+1,4)').ERR3        02040002
&START1  SETA  &SYSLIST(&OP+1,3)        GET START COUNT OF 1            02100002
&START2  SETA  &SYSLIST(&OP+1,4)        GET FIRST END COUNT             02160002
         AGO   .SET2A                   BRANCH AROUND                   02220002
         AIF   ('&SYSLIST(&OP+1,5)' GT '&SYSLIST(&OP+1,6)').ERR3        02280002
.ERR1    MNOTE '**FIRST SYMBOL CONCATENATION INCOMPLETE**'              02340002
         MEXIT                                                          02400002
.SET2A   AIF   ('&SYSLIST(&OP+1,5)' EQ ''AND '&SYSLIST(&OP+1,6)' EQ '' X02460002
               ).SET2                   TEST FOR NO SECOND              02520002
  AIF   ('&SYSLIST(&OP+1,5)' EQ '' OR '&SYSLIST(&OP+1,6)' EQ '').ERR2   02580002
&END1    SETA  &SYSLIST(&OP+1,5)        GET START COUNT OF 2            02640002
&END2    SETA  &SYSLIST(&OP+1,6)        GET END COUNT OF 2              02700002
         AGO   .LOOP                                                    02760002
.SET2    ANOP                                                           02820002
&ONLY1   SETB  1                        INDICATE ONLY ONE CONCATENATION 02880002
         AGO   .LOOP                                                    02940002
.ERR2    MNOTE '**SECOND SYMBOL CONCATENATION INCOMPLETE**'             03000002
         MEXIT                                                          03060002
.ERR3    MNOTE '**START GREATER THAN END CONCATENATION**'               03120002
         MEXIT                                                          03180002
.LOOP    ANOP                                                           03240002
&OP      SETA  &OP+1                                                    03300002
         AIF   (&OP GT N'&SYSLIST).DONE      TEST IF ALL DONE           03360002
&ITEMNBR SETA  &ITEMNBR+1                                               03420002
         AIF   ('&SYSLIST(&OP,2)' NE '').OK1                            03480002
         MNOTE '**NULL BIT COUNT FIELD**'                               03540002
         MEXIT                                                          03600002
.OK1     ANOP                                                           03660002
&SYMBOL  SETC  '&SYSLIST(&OP,1)'                                        03720002
         AIF   ('&SYMBOL' NE '').OK                                     03780002
*              *****     LOG ITEM SYMBOL NOT PROVIDED     *****         03840002
         AIF   ('&SYSLIST(&OP,3)' NE 'EQU').CNT                         03900002
         AGO   .START                   GET NEXT                        03960002
.OK      AIF   (N'&SYSLIST(&OP) LT 3).NO3    TEST FOR OLD FORMAT        04020002
         AIF   ('&SYSLIST(&OP,3)' EQ 'EQU').EQU   TEST FOR EQU          04080002
         AIF   (&ONLY1).OK2             TEST FOR ONLY ONE CONCAT        04140002
&SYMBOL  SETC  '&SYMBOL.&START1.&END1'       GET 1 AND 2 CONCAT         04200002
         AGO   .NO3                     BRANCH AROUND                   04260002
.OK2     ANOP                                                           04320002
&SYMBOL  SETC  '&SYMBOL.&START1'        GET 1 CONCATENATED              04380002
.NO3     ANOP                                                           04440002
&SYMBOL  EQU   *+&BYTE                                                  04500002
&ITEM(&ITEMNBR) SETC '&SYMBOL'          GET LABEL IN GLOBAL             04560002
&BITS(&ITEMNBR) SETA &SYSLIST(&OP,2)                                    04620002
&SHIFT(&ITEMNBR) SETA &COUNT-&BYTE*8                                    04680002
.CNT     ANOP                                                           04740002
&CTIND   SETB  1                        SET COUNT INDICATOR             04800002
&COUNT   SETA  &COUNT+&SYSLIST(&OP,2)                                   04860002
&BYTE    SETA  &COUNT/8                                                 04920002
         AIF   (N'&SYSLIST(&OP) LT 3).START  TEST FOR OLD FORMAT        04980002
         AIF   (&ONLY1).TSTST           TEST FOR ONLY ONE CONCAT        05040002
         AIF   (&END1 EQ &END2).TSTST   TEST FOR SECOND END             05100002
&END1    SETA  &END1+1                  INCREMENT COUNT                 05160002
&OP      SETA  &OP-1                    DECREMENT INCREMENT             05220002
         AGO   .LOOP                    GENERATE NEXT                   05280002
.TSTST   ANOP                                                           05340002
         AIF   (&START1 EQ &START2).LPDONE   TEST FOR END               05400002
         AIF   (&ONLY1).NSET1           TEST FOR ONLY ONE CONCAT        05460002
&END1    SETA  &SYSLIST(&OP,5)          RE-INIT SECOND START COUNT      05520002
.NSET1   ANOP                                                           05580002
&OP      SETA  &OP-1                    DECREMENT INDEX                 05640002
&START1  SETA  &START1+1                INCREMENT FIRST COUNT           05700002
         AGO   .LOOP                    GO DO NEXT                      05760002
.LPDONE  ANOP                                                           05820002
&ONLY1   SETB  0                        CLEAR INDICATOR                 05880002
         AGO   .START                   GO TEST FOR MORE SUB-LISTS      05940002
.DONE    AIF   (&COUNT-&COUNT/8*8 NE 0).ERR  TEST FOR MULTIPLE OF EIGHT 06000002
         AIF   (&CTIND EQ 0).END        NO DS IF NO COUNT               06060002
&COUNT   SETA  &COUNT/8                 GET NUMBER OF BYTES             06120002
&NAME    DS    &COUNT.C                                                 06180002
.END     MEXIT                                                          06240002
.ERR     MNOTE '**BIT COUNT FLDS DO NOT TOTAL MULTIPLE OF 8**'          06300002
         MEXIT                                                          06360002
.EQU     AIF   ('&SYSLIST(&OP,4)' NE '').EQU1     TEST FOR NULL LABEL   06420002
.ERR4    MNOTE '**EQU OPERAND OMITTED OR NOT FOUND**'                   06480002
         MEXIT                                                          06540002
.EQU1    AIF   (&SYSLIST(&OP,2) LT 16).EQU2  COUNT OVER FIFTEEN         06600002
*****               THE FOLLOWING STATEMENT                *****        06660002
*****     NUMBER OF BITS EXCEED 15 - DO NOT USE AS BIN     *****        06720002
.EQU2    ANOP                                                           06780002
&EQUCNT  SETA  0                        CLEAR COUNTER                   06840002
&EQUSYM  SETC  '&SYSLIST(&OP,4)'        GET EQU OPERAND                 06900002
.EQULOP  ANOP                                                           06960002
&EQUCNT  SETA  &EQUCNT+1                INCREMENT INDEX                 07020002
         AIF   ('&ITEM(&EQUCNT)' EQ '&EQUSYM').EQUOUT  LABEL FOUND?     07080002
         AIF   (&EQUCNT EQ &ITEMNBR).ERR4    ALL TESTED?                07140002
         AGO   .EQULOP                  NO-GET NEXT                     07200002
.EQUOUT  ANOP                                                           07260002
&ITEM(&ITEMNBR) SETC '&SYMBOL'          GET LABEL NAME                  07320002
&BITS(&ITEMNBR) SETA &SYSLIST(&OP,2)    GET NUMBER OF BITS              07380002
&SHIFT(&ITEMNBR) SETA &SHIFT(&EQUCNT)   GET SHIFT COUNT                 07440002
&SYMBOL  EQU   &EQUSYM                  THIS SYMBOL EQUATED             07500002
         AGO   .START                   RETURN FOR NEXT                 07560002
         MEND                                                           07620002
         MACRO                                                          07680002
         HEX   ,                                                        07740002
.*                            THIS MACRO FACILITATES GENERATION OF THE  07800002
.*                                 TABLE ENTRIES SPECIFYING HEX TYPE    07860002
.*                                 CONVERSIONS.                         07920002
.*                            &SYSLIST(&OP,1) - NAME OF DATA ITEM TO BE 07980002
.*                                 CONVERTED                            08040002
.*                            &SYSLIST(&OP,2) - # OF SPACES TO SKIP ON  08100002
.*                                 MULTIPLE PRINT OR NBR OF SPACES TO   08160002
.*                                 BACK UP FROM COLUMN FOR START OF     08220002
.*                                 PRINTING. THE LETTER B PRECEEDS THE  08280002
.*                                 NUMBER (B8) IF THE LATTER OPTION IS  08340002
.*                                 DESIRED. OMISSION OF THIS OPERAND    08400002
.*                                 FORCES OPTION 2 WITH BACKUP SPACING  08460002
.*                                 EQUAL TO THE NUMBER OF BYTES SPECI-  08520002
.*                                 FIED BY THE NEXT OPERAND (TWICE THIS 08580002
.*                                 NUMBER IF SUFFIX IS EXPLICITLY OR    08640002
.*                                 IMPLICITLY B).                       08700002
.*                            &SYSLIST(&OP,3) - NUMBER OF BYTES TO      08760002
.*                                 PROCESS. THIS NUMBER IS SUFFIXED     08820002
.*                                 WITH AN L,R, OR B TO STIPULATE       08880002
.*                                 PRINTING OF THE LEFT HALF, RIGHT     08940002
.*                                 HALF, OR BOTH HALVES OF THE BYTE     09000002
.*                                 RESPECTIVELY. OMISSION OF THIS       09060002
.*                                 OPERAND DEFAULTS TO B WITH THE NUM-  09120002
.*                                 BER OF BYTES EQUAL TO THE ITEM LNGTH 09180002
.*                            A NEW ENTRY IS GENERATED ONLY WHEN NECES- 09240002
.*                                 SARY. THIS MACRO MUST BE THE FIRST   09300002
.*                                 MACRO INSTRUCTION ISSUED FOR THE     09360002
.*                                 SUBJECT LINE(S).                     09420002
         GBLA  &BITS(2600),&DB,&DT,&INITIAL                             09480002
         GBLA  &ITEMITR,&ITEMFST(20),&ITEMNBR,&ITEMMDX                  09540002
         GBLA  &ITEMNDX(2600),&ITEMXPT                                  09600002
         GBLA  &LABELNR,&LASTCC,&LB,&LBLCTR(100),&LPTR,&LT              09660002
         GBLA  &NRENTS,&SHIFT(2600)                                     09720002
         GBLB  &DIAGITF,&DIAGLIN,&DIAGSET,&DIAGTST,&FSW,&TEST           09780002
         GBLC  &CARRCON,&CSECT,&DSECT,&ITEM(2600)                       09840002
         GBLC  &LABELS(2600),&LBL(100),&NRENTSX                         09900002
         LCLB  &B,&SUB                                                  09960002
         LCLA  &IBITS,&ISHIFT,&K,&T,&CODE,&BYTESP,&OP                   10020002
         LCLC  &S,&LETTER,&ARG                                          10080002
       ACTR  500000                                                     10140002
         AIF   (&DIAGTST EQ 0).NOMSG                                    10200002
         AIF   (&INITIAL EQ 0).NOMSG                                    10260002
         AIF   (&DIAGLIN EQ 1).NOMSG                                    10320002
         MNOTE '**NO LINE ASSOCIATED WITH THIS DATA**'                  10380002
*****THE FOLLOWING GENERATED FOR TEST PURPOSES*****                     10440002
*        LINE                                                           10500002
         LINE                                                           10560002
.NOMSG   ANOP                                                           10620002
         AIF   (K'&SYSLIST(1) EQ K'&SYSLIST(1,1)).LOOP                  10680002
&SUB     SETB  1                                                        10740002
.LOOP    ANOP                                                           10800002
&OP      SETA  &OP+1                                                    10860002
&ARG     SETC  '&SYSLIST(&OP,1)'                                        10920002
         ITEMFIND  &ARG                                                 10980002
         AIF   (&ITEMXPT EQ 0).MEXIT                                    11040002
.FOUND   ANOP                                                           11100002
&ISHIFT  SETA  &SHIFT(&ITEMXPT)                                         11160002
&IBITS   SETA  &BITS(&ITEMXPT)                                          11220002
         AIF   (&ISHIFT EQ 0 OR &ISHIFT EQ 4).ALIGN                     11280002
.ERR     MNOTE '**DATA NOT ALLIGNED ON HEX OR BYTE BOUNDARY**'          11340002
.MEXIT   MEXIT                                                          11400002
.ALIGN   ANOP                                                           11460002
&CODE    SETA  1                                                        11520002
         AIF   (&SUB EQ 1).SUBA                                         11580002
&K       SETA  K'&SYSLIST(3)                                            11640002
         AGO   .SUBB                                                    11700002
.SUBA    ANOP                                                           11760002
&K       SETA  K'&SYSLIST(&OP,3)                                        11820002
.SUBB    ANOP                                                           11880002
         AIF   (&K EQ 1).ERR3                                           11940002
         AIF   (&IBITS-(&IBITS/4)*4 EQ 0).OK                            12000002
         MNOTE '**BIT LENGTH SPECIFICATION INCONSISTENT WITH CONTROL**' 12060002
         MEXIT                                                          12120002
.OK      AIF   (&SUB EQ 1).SUBC                                         12180002
         AIF   ('&SYSLIST(3)' EQ '').USEDEFN                            12240002
&LETTER  SETC  '&SYSLIST(3)'(&K,1)                                      12300002
&S       SETC  '&SYSLIST(3)'(1,&K-1)                                    12360002
         AGO   .SUBD                                                    12420002
.SUBC    ANOP                                                           12480002
         AIF   ('&SYSLIST(&OP,3)' EQ '').USEDEFN                        12540002
&LETTER  SETC  '&SYSLIST(&OP,3)'(&K,1)                                  12600002
&S       SETC  '&SYSLIST(&OP,3)'(1,&K-1)                                12660002
.SUBD    ANOP                                                           12720002
&BYTESP  SETA  &S                                                       12780002
         AIF   ('&LETTER' EQ 'B').BOTH                                  12840002
         AIF   ('&LETTER' EQ 'L').LEFT                                  12900002
         AIF   ('&LETTER' EQ 'R').RIGHT                                 12960002
.ERR3    MNOTE '**PARAMETER 3 INCOMPLETE-DSGEN DEFINITION USED**'       13020002
         AGO   .USEDEFN                                                 13080002
.RIGHT   ANOP                                                           13140002
&CODE    SETA  2                                                        13200002
         AGO   .L                                                       13260002
.LEFT    ANOP                                                           13320002
&CODE    SETA  1                                                        13380002
         AGO   .L                                                       13440002
.USEDEFN ANOP                                                           13500002
&BYTESP  SETA  &IBITS/8                                                 13560002
.BOTH    AIF   (&ISHIFT NE 0).ERR                                       13620002
&CODE    SETA  3                                                        13680002
&T       SETA  &BYTESP*2-1                                              13740002
&S       SETC  '&T'                                                     13800002
.OK2     AIF   (&ISHIFT EQ 0).L                                         13860002
&CODE    SETA  2                                                        13920002
.L       ANOP                                                           13980002
&B       SETB  1                                                        14040002
         AIF   (&SUB EQ 1).SUBE                                         14100002
         AIF   ('&SYSLIST(2)' EQ '').BACKUP                             14160002
&K       SETA  K'&SYSLIST(2)                                            14220002
&B       SETB  ('&SYSLIST(2)'(1,1) EQ 'B')                              14280002
&S       SETC  '&SYSLIST(2)'(&B+1,&K-&B)                                14340002
         AGO   .SUBF                                                    14400002
.SUBE    ANOP                                                           14460002
         AIF   ('&SYSLIST(&OP,2)' EQ '').BACKUP                         14520002
&K       SETA  K'&SYSLIST(&OP,2)                                        14580002
&B       SETB  ('&SYSLIST(&OP,2)'(1,1) EQ 'B')                          14640002
&S       SETC  '&SYSLIST(&OP,2)'(&B+1,&K-&B)                            14700002
.SUBF    ANOP                                                           14760002
.BACKUP  ANOP                                                           14820002
&NRENTS  SETA  &NRENTS+1                                                14880002
         AIF   (&BYTESP GT 0 AND &BYTESP LT 16).SUB0                    14940002
         MNOTE '**NO. OF BYTES OUTSIDE RANGE OF 1-15**'                 15000002
         MEXIT                                                          15060002
.SUB0    AIF   (&SUB EQ 1).SUBG                                         15120002
         DC    AL.12(&SYSLIST(1)-&DSECT),XL.4'A'                        15180002
         AGO   .SUBH                                                    15240002
.SUBG    ANOP                                                           15300002
         DC    AL.12(&SYSLIST(&OP,1)-&DSECT),XL.4'A'                    15360002
.SUBH    ANOP                                                           15420002
         DC    BL.1'&B',FL.7'&S',AL.4(&BYTESP),FL.4'&CODE'              15480002
.OUT     ANOP                                                           15540002
&ITEMXPT     SETA  0                                                    15600002
         AIF   (&SUB EQ 0).OUTA                                         15660002
         AIF   (&OP LT N'&SYSLIST).LOOP                                 15720002
.OUTA    ANOP                                                           15780002
         MEND                                                           15840002
         MACRO                                                          15900002
         BIN   ,                                                        15960002
.*                                 &SYSLIST(&OP,1) - NAME OF LOG ITEM   16020002
.*                                      RECORD DSECT                    16080002
.*                                 $SYSLIST(&OP,2) - NBR OF SPACES      16140002
.*                                      TO SKIP ON MULTIPLE             16200002
.*                                      PRINT OR NBR OF SPACES          16260002
.*                                      TO BACK UP FROM COLUMN FOR      16320002
.*                                      START OF PRINTING. THE LETTER   16380002
.*                                      B PRECEEDS THE NUMBER (B5) IF   16440002
.*                                      THE LATTER IS DESIRED. OMISSION 16500002
.*                                      OF THIS OPERAND FORCES OPTION 2 16560002
.*                                      WITH BACKUP SPACING EQUAL TO    16620002
.*                                 THE NUMBER OF BITS IN THE ITEM       16680002
.*                                 DEFINITION (VIA MACRO 'DSGEN').      16740002
.*                            A LIMIT OF 15 BITS IS IMPOSED FOR THE     16800002
.*                                 TOTAL NUMBER OF BITS TO PRINT.       16860002
         GBLA  &BITS(2600),&DB,&DT,&INITIAL                             16920002
         GBLA  &ITEMITR,&ITEMFST(20),&ITEMNBR,&ITEMMDX                  16980002
         GBLA  &ITEMNDX(2600),&ITEMXPT                                  17040002
         GBLA  &LABELNR,&LASTCC,&LB,&LBLCTR(100),&LPTR,&LT              17100002
         GBLA  &NRENTS,&SHIFT(2600)                                     17160002
         GBLB  &DIAGITF,&DIAGLIN,&DIAGSET,&DIAGTST,&FSW,&TEST           17220002
         GBLC  &CARRCON,&CSECT,&DSECT,&ITEM(2600)                       17280002
         GBLC  &LABELS(2600),&LBL(100),&NRENTSX                         17340002
         LCLB  &B,&SUB                                                  17400002
         LCLA  &IBITS,&ISHIFT,&K                                        17460002
         LCLA  &TEMP,&T,&OP                                             17520002
         LCLC  &S,&ARG                                                  17580002
          ACTR  500000                                                  17640002
         AIF   (&DIAGTST EQ 0).NOMSG                                    17700002
         AIF   (&INITIAL EQ 0).NOMSG                                    17760002
         AIF   (&DIAGLIN EQ 1).NOMSG                                    17820002
         MNOTE '**NO LINE ASSOCIATED WITH THIS DATA**'                  17880002
*****THE FOLLOWING GENERATED FOR TEST PURPOSES*****                     17940002
*        LINE                                                           18000002
         LINE                                                           18060002
.NOMSG   ANOP                                                           18120002
         AIF   (K'&SYSLIST(1) EQ K'&SYSLIST(1,1)).LOOP                  18180002
&SUB     SETB  1                                                        18240002
.LOOP    ANOP                                                           18300002
&OP      SETA  &OP+1                                                    18360002
&ARG     SETC  '&SYSLIST(&OP,1)'                                        18420002
         ITEMFIND &ARG                                                  18480002
         AIF   (&ITEMXPT EQ 0).MEXIT                                    18540002
&ISHIFT  SETA  &SHIFT(&ITEMXPT)                                         18600002
&IBITS   SETA  &BITS(&ITEMXPT)                                          18660002
         AIF   (&SUB EQ 1).SUB00                                        18720002
         AIF   ('&SYSLIST(3)' EQ '').SETT                               18780002
&IBITS   SETA  &SYSLIST(3)                                              18840002
         AGO   .SETT                                                    18900002
.SUB00   AIF   ('&SYSLIST(&OP,3)' EQ '').SETT                           18960002
&IBITS   SETA  &SYSLIST(&OP,3)                                          19020002
.SETT    ANOP                                                           19080002
&T       SETA  &IBITS-1                                                 19140002
&B       SETB  0                                                        19200002
         AIF   (&IBITS GT 0 AND &IBITS LT 16).SUB0                      19260002
         MNOTE '**NO. OF BITS OUTSIDE RANGE OF 1-15**'                  19320002
.MEXIT   MEXIT                                                          19380002
.SUB0    AIF   (&SUB EQ 1).SUBA                                         19440002
         AIF   ('&SYSLIST(2)' EQ '').BACKUP                             19500002
&K       SETA  K'&SYSLIST(2)                                            19560002
&B       SETB  ('&SYSLIST(2)'(1,1) EQ 'B')                              19620002
&S       SETC  '&SYSLIST(2)'(&B+1,&K-&B)                                19680002
         AGO   .SUBB                                                    19740002
.SUBA    ANOP                                                           19800002
         AIF   ('&SYSLIST(&OP,2)' EQ '').BACKUP                         19860002
&K       SETA  K'&SYSLIST(&OP,2)                                        19920002
&B       SETB  ('&SYSLIST(&OP,2)'(1,1) EQ 'B')                          19980002
&S       SETC  '&SYSLIST(&OP,2)'(&B+1,&K-&B)                            20040002
.SUBB    ANOP                                                           20100002
&T       SETA  &S                                                       20160002
.BACKUP  ANOP                                                           20220002
&NRENTS  SETA  &NRENTS+1                                                20280002
&TEMP    SETA  &ISHIFT                                                  20340002
         AIF   (&IBITS NE 1 OR &B NE 0).BIN2                            20400002
         DC    AL.12(&SYSLIST(&OP,1)-&DSECT),XL.4'&TEMP'                20460002
         AGO   .OUT                                                     20520002
         AIF   (&SUB EQ 1).BIN2                                         20580002
         AIF   ('&SYSLIST(2)' NE '').BIN3                               20640002
         AGO   .BIN2A                                                   20700002
.BIN2    AIF   ('&SYSLIST(&OP,2)' NE '').BIN3                           20760002
.BIN2A   ANOP                                                           20820002
&B       SETB  1                                                        20880002
.BIN3    ANOP                                                           20940002
         DC    AL.12(&SYSLIST(&OP,1)-&DSECT),XL.4'C'                    21000002
         DC    BL.1'&B',AL.7(&T),AL.4(&IBITS),FL.4'&ISHIFT'             21060002
.OUT     ANOP                                                           21120002
&ITEMXPT     SETA  0                                                    21180002
         AIF   (&SUB EQ 0).OUTA                                         21240002
         AIF   (&OP LT N'&SYSLIST).LOOP                                 21300002
.OUTA    ANOP                                                           21360002
         MEND                                                           21420002
         MACRO                                                          21480002
&NAME    LINE  &DATA,&LABEL,&SKIP=                                      21540002
.*                            THIS MACRO ESTABLISHES THE MARGINS OR     21600002
.*                                 COLUMN SETTINGS FOR EACH LINE. IT    21660002
.*                                 GENERATES NECESSARY CARRIAGE CONTROL 21720002
.*                                 ENTRIES. LASTLY IT DETERMINES THE    21780002
.*                                 NUMBER OF ENTRIES ASSOCIATED WITH    21840002
.*                                 THE PREVIOUS LINE AND STORES THAT #  21900002
.*                                 INTO THE APPROPRIATE BYTE.           21960002
.*                            &DATA(1) - CHARACTER POSITION TO BEGIN    22020002
.*                                 DATA.                                22080002
.*                            &DATA(2) - # OF SPACES BETWEEN SUCCESSIVE 22140002
.*                                 DATA COLUMN STARTING CHARACTERS.     22200002