         TITLE 'IFCEUKNO-EDIT TABLE-LINKNAME IFCEUKNO'                  00100002
***************************************************************  S21021 00200002
*                                                                       00300002
************             ENTIRE MODULE REPLACED UNDER CODE S21021       00400002
*                                                                       00500002
         SPACE 2                                                        00600002
*  LINE MACRO     LINE MACRO     LINE MACRO     LINE MACRO            * 00700002
         MACRO                                                          00800002
&NAME    LINE  &DATA,&LABEL,&SKIP=                                      00900002
.*                            THIS MACRO ESTABLISHES THE MARGINS OR     01000002
.*                                 COLUMN SETTINGS FOR EACH LINE. IT    01100002
.*                                 GENERATES NECESSARY CARRIAGE CONTROL 01200002
.*                                 ENTRIES. LASTLY IT DETERMINES THE    01300002
.*                                 NUMBER OF ENTRIES ASSOCIATED WITH    01400002
.*                                 THE PREVIOUS LINE AND STORES THAT #  01500002
.*                                 INTO THE APPROPRIATE BYTE.           01600002
.*                            &DATA(1) - CHARACTER POSITION TO BEGIN    01700002
.*                                 DATA.                                01800002
.*                            &DATA(2) - # OF SPACES BETWEEN SUCCESSIVE 01900002
.*                                 DATA COLUMN STARTING CHARACTERS.     02000002
.*                            &LABEL(1) - CHAR. POS. TO BEGIN LABELS.   02100002
.*                            &LABEL(2) - # SPACES BETWEEN LINE'S LABEL 02200002
.*                                 STARTING CHARACTERS.                 02300002
.*                            &SKIP= - # OF LINES TO ADVANCE CARRIAGE   02400002
.*                                 TO BEGIN NEXT PRINTED LINE.          02500002
.*                            NEW ENTRIES ARE GENERATED ONLY WHEN       02600002
.*                                 NECESSARY. OMISSION OF ITEMS MEANS   02700002
.*                                 THEY HAVE NOT CHANGED SINCE PREVIOUS 02800002
.*                                 SETTINGS. A LINE MACRO IS REQUIRED   02900002
.*                                 FOR EACH PRINTED LINE. IF NO SETTING 03000002
.*                                 CHANGES ARE REQUIRED ALL OPERANDS    03100002
.*                                 ARE OMITTED IN WHICH CASE ONLY THE   03200002
.*                                 # OF ENTRIES FOR THE PREVIOUS LINE   03300002
.*                                 IS COMPUTED. THIS MACRO MUST BE THE  03400002
.*                                 FIRST MACRO INSTRUCTION ISSUED FOR   03500002
.*                                 THE SUBJECT LINE                     03600002
         GBLA  &DB,&DT,&LB,&LT,&NRENTS                                  03700002
         GBLA  &LASTCC,&INITIAL                                         03800002
         GBLC  &NRENTSX                                                 03900002
         GBLC  &CARRCON                                                 04000002
         GBLB  &TEST                                                    04100002
         LCLA  &S                                                       04200002
&NAME    DS    0C                                                       04300002
         AIF   (&INITIAL EQ 0).FIRSTLN                                  04400002
         LINEND                                                         04500002
         AGO   .NTFIRST                                                 04600002
.FIRSTLN ANOP                                                           04700002
&NRENTSX SETC  'N&SYSNDX'                                               04800002
&INITIAL SETA  1                                                        04900002
N&SYSNDX EQU   *                                                        05000002
.NTFIRST ANOP                                                           05100002
         DC    AL1(0)                                                   05200002
         AIF   ('&DATA(1)' EQ '').CKDTABS                               05300002
         AIF   (&DATA(1) EQ &DB).CKDTABS                                05400002
&DB      SETA  &DATA(1)                                                 05500002
         AGO   .AA                                                      05600002
.CKDTABS AIF   ('&DATA(2)' EQ '').NCDATA                                05700002
         AIF   (&DATA(2) EQ &DT).NCDATA                                 05800002
         AGO   .CC                                                      05900002
.AA      AIF   ('&DATA(2)' EQ '').BB                                    06000002
         AIF   (&DATA(2) EQ &DT).BB                                     06100002
.CC      ANOP                                                           06200002
&DT      SETA  &DATA(2)                                                 06300002
.BB      DC    XL2'FFFE'                                                06400002
         DC    FL1'&DB'                                                 06500002
         DC    FL1'&DT'                                                 06600002
&NRENTS  SETA  &NRENTS+1                                                06700002
.NCDATA  ANOP                                                           06800002
         AIF   ('&LABEL(1)' EQ '').CKLTABS                              06900002
         AIF   (&LABEL(1) EQ &LB).CKLTABS                               07000002
&LB      SETA  &LABEL(1)                                                07100002
         AGO   .AAA                                                     07200002
.CKLTABS AIF   ('&LABEL(2)' EQ '').NCLABEL                              07300002
         AIF   (&LABEL(2) EQ &LT).NCLABEL                               07400002
         AGO   .CCC                                                     07500002
.AAA     AIF   ('&LABEL(2)' EQ '').BBB                                  07600002
         AIF   (&LABEL(2) EQ &LT).BBB                                   07700002
.CCC     ANOP                                                           07800002
&LT      SETA  &LABEL(2)                                                07900002
.BBB     DC    XL2'FFFF'                                                08000002
         DC    FL1'&LB'                                                 08100002
         DC    FL1'&LT'                                                 08200002
&NRENTS  SETA  &NRENTS+1                                                08300002
.NCLABEL ANOP                                                           08400002
         AIF   ('&SKIP' NE '').CONT                                     08500002
         AIF   (&TEST EQ 0).NOCHANG                                     08600002
&S       SETA  &LASTCC                                                  08700002
         AGO   .DEFAULT                                                 08800002
.CONT    ANOP                                                           08900002
         AIF   (&TEST EQ 0).AB                                          09000002
&S       SETA  &SKIP                                                    09100002
.DEFAULT ANOP                                                           09200002
         ORG   &CARRCON+3                                               09300002
         DC    AL.3(0),AL.2(&S),AL.3(1)                                 09400002
         ORG                                                            09500002
&LASTCC  SETA  &S                                                       09600002
&TEST    SETB  0                                                        09700002
         AGO   .DD                                                      09800002
.AB      AIF   (&SKIP EQ &LASTCC).NOCHANG                               09900002
A&SYSNDX DC    XL2'FFFB'                                                10000002
         DC    AL.3(0),AL.2(&SKIP),AL.3(1)                              10100002
         DC    FL1'9'                                                   10200002
&LASTCC  SETA  &SKIP                                                    10300002
&TEST    SETB  1                                                        10400002
&CARRCON SETC  'A&SYSNDX'                                               10500002
&NRENTS  SETA  &NRENTS+1                                                10600002
.DD      ANOP                                                           10700002
.NOCHANG ANOP                                                           10800002
         MEND                                                           10900002
         EJECT                                                          11000002
         SPACE 2                                                        11100002
*  ROUTINE MACRO     ROUTINE MACRO     ROUTINE MACRO     ROUTINE MACRO* 11200002
         MACRO                                                          11300002
&NAME    ROUTINE &LOGITEM,&RNAME                                        11400002
         GBLC  &DSECT,&CSECT                                            11500002
         GBLC  &ITEM(1000)                                              11600002
         GBLA  &SHIFT(1000),&ITEMNBR                                    11700002
         GBLA  &NRENTS                                                  11800002
         LCLA  &ISHIFT,&NDX                                             11900002
.LOOP    ANOP                                                           12000002
&NDX     SETA  &NDX+1                                                   12100002
         AIF   ('&ITEM(&NDX)' EQ '&LOGITEM').FOUND                      12200002
         AIF   (&NDX LT &ITEMNBR).LOOP                                  12300002
         MNOTE *,'LOG ITEM NOT DEFINED'                                 12400002
         MEXIT                                                          12500002
.FOUND   ANOP                                                           12600002
&ISHIFT  SETA  &SHIFT(&NDX)                                             12700002
&NAME    DC    AL.12(&LOGITEM-&DSECT),XL.4'D'                           12800002
         DC    AL.4(&ISHIFT),AL.12(&RNAME-&CSECT)                       12900002
&NRENTS  SETA  &NRENTS+1                                                13000002
         MEND                                                           13100002
*  DSGEN MACRO     DSGEN MACRO     DSGEN MACRO     DSGEN MACRO        * 13200002
         SPACE 2                                                        13300002
         MACRO                                                          13400002
&NAME    DSGEN &X1,&X2,&X3,&X4,&X5,&X6,&X7,&X8,&X9,&X10,&X11,&X12,&X13,X13500002
               &X14,&X15,&X16,&X17,&X18,&X19,&X20,&X21,&X22,&X23,&X24, X13600002
               &X25,&X26,&X27,&X28,&X29,&X30,&X31,&X32                  13700002
.*                            THIS MACRO GENERATES ONE DSECT WORD       13800002
.*                                 FORMATTED FOR THE SUBJECT LOG RECORD 13900002
.*                                 EACH OPERAND HAS TWO SUB LISTS. THE  14000002
.*                                 FIRST IS THE NAME OF THE LOG ITEM    14100002
.*                                 WHILE THE SECOND IS THE # OF BITS TO 14200002
.*                                 ALLOCATE FOR THIS ITEM. ITEMS MUST   14300002
.*                                 BE DEFINED CONTIGUOUSLY WITHOUT GAPS 14400002
.*                                 UNUSED BIT GROUPS MUST BE GIVEN      14500002
.*                                 DUMMY NAMES. THE NAMES PROVIDED FOR  14600002
.*                                 THE LOG ITEMS MAY THEN BE USED IN    14700002
.*                                 THE CONVERSION MACRO INSTRUCTIONS.   14800002
         GBLC &ITEM(1000)                                               14900002
         GBLA &ITEMNBR,&BITS(1000),&SHIFT(1000)                         15000002
         LCLC  &SYMBOL                                                  15100002
         LCLA  &OP,&COUNT,&BYTE                                         15200002
.LOOP    ANOP                                                           15300002
&OP      SETA  &OP+1                                                    15400002
&ITEMNBR SETA  &ITEMNBR+1                                               15500002
&SYMBOL  SETC  '&SYSLIST(&OP,1)'                                        15600002
         AIF   ('&SYSLIST(&OP,2)' NE '').OK1                            15700002
         MNOTE *,'NULL BIT COUNT FIELD'                                 15800002
         MEXIT                                                          15900002
.OK1     ANOP                                                           16000002
         AIF   ('&SYMBOL' NE '').OK                                     16100002
         MNOTE 'LOG ITEM SYMBOL NOT PROVIDED'                           16200002
         AGO   .CNT                                                     16300002
.OK      ANOP                                                           16400002
         AIF   ('&SYMBOL'(1,1) EQ '''').CNT                *TEMP*       16500002
&SYMBOL  EQU   *+&BYTE                                                  16600002
&ITEM(&ITEMNBR)  SETC '&SYSLIST(&OP,1)'                                 16700002
&BITS(&ITEMNBR) SETA &SYSLIST(&OP,2)                                    16800002
&SHIFT(&ITEMNBR) SETA &COUNT-&BYTE*8                                    16900002
.CNT     ANOP                                                           17000002
&COUNT   SETA  &COUNT+&SYSLIST(&OP,2)                                   17100002
&BYTE    SETA  &COUNT/8                                                 17200002
         AIF (&OP LT N'&SYSLIST).LOOP                                   17300002
         AIF   (&COUNT NE 32).NOT32                                     17400002
&NAME    DS    4C                                                       17500002
         MEXIT                                                          17600002
.NOT32   AIF   (&COUNT NE 64).ERR                                       17700002
&NAME    DS    8C                                                       17800002
         MEXIT                                                          17900002
.ERR     MNOTE '**BIT COUNT FIELDS DO NOT TOTAL 32 OR 64**'             18000002
         MEND                                                           18100002
         MACRO                                                          18200002
         LINEND                                                         18300002
.*                            THIS MACRO IS USED ONLY BY THE LINE       18400002
.*                                 MACRO TO SET THE NUMBER OF ENTRIES   18500002
.*                                 ASSOCIATED WITH EACH LINE.           18600002
         GBLA  &NRENTS                                                  18700002
         GBLC &NRENTSX                                                  18800002
         ORG   &NRENTSX                                                 18900002
         DC    FL1'&NRENTS'                                             19000002
         ORG                                                            19100002
&NRENTS  SETA  0                                                        19200002
B&SYSNDX EQU   *                                                        19300002
&NRENTSX SETC  'B&SYSNDX'                                               19400002
         MEND                                                           19500002
         SPACE 2                                                        19600002
         EJECT                                                          19700002
*  LABEL MACRO     LABEL MACRO     LABEL MACRO     LABEL MACRO        * 19800002
         SPACE 2                                                        19900002
         MACRO                                                          20000002
&NAME    LABEL &LABEL1,&LABEL2,&LABEL3,&LABEL4,&LABEL5,&LABEL6,        C20100002
               &LABEL7,&LABEL8                                          20200002
.*                            THIS MACRO ALLOWS UP TO ACHT LABELS TO    20300002
.*                                 BE SPECIFIED FOR A GIVEN LINE. THE   20400002
.*                                 LABELS SHOULD BE ENCLOSED IN QUOTA-  20500002
.*                                 TION MARKS. THE COLUMN AND LINE END  20600002
.*                                 CONTROLS WILL BE INSERTED BY THE     20700002
.*                                 MACRO. OMITTED OPERANDS MEAN NO      20800002
.*                                 LABEL REQUIRED FOR RESPECTIVE        20900002
.*                                 COLUMN. THIS MACRO WILL ALSO ALERT   21000002
.*                                 THE PROGRAMMER TO EXACTLY WHERE THE  21100002
.*                                 TABLE MUST BE BROKEN IF NECESSARY    21200002
.*                                 TO AVOID EXCEEDING THE MAXIMUM LIMIT 21300002
         GBLC &LABELS(2000)                                             21400002
         GBLC  &LBL(100)                                                21500002
         GBLA  &LBLCTR(100)                                             21600002
         GBLA  &LABELNR                                                 21700002
         GBLA  &NRENTS,&LPTR                                            21800002
         LCLC  &MARGIN,&TACK                                            21900002
         LCLC  &TEXT                                                    22000002
         LCLA  &OP,&K,&START,&NRCHAR,&REMAIN                            22100002
&MARGIN  SETC  '*'                                                      22200002
         AIF   ('&NAME' EQ '').LOOPOUT                                  22300002
&LPTR    SETA  &LPTR+1                                                  22400002
&LBL(&LPTR) SETC '&NAME'                                                22500002
&LBLCTR(&LPTR) SETA &LABELNR+1                                          22600002
.LOOPOUT ANOP                                                           22700002
&OP      SETA  &OP+1                                                    22800002
&K       SETA  K'&SYSLIST(&OP)                                          22900002
         AIF (&K GE 2).NORM                                             23000002
&K       SETA  2                                                        23100002
.NORM    ANOP                                                           23200002
&START   SETA  2                                                        23300002
         AIF (&OP LT N'&SYSLIST).NOTLAST                                23400002
&MARGIN  SETC  '$'                                                      23500002
.NOTLAST ANOP                                                           23600002
&NRCHAR  SETA  8                                                        23700002
&TACK    SETC  ''                                                       23800002
.LOOPIN  ANOP                                                           23900002
&REMAIN  SETA  &K-&START                                                24000002
         AIF (&REMAIN GE 8).MORE                                        24100002
&TACK    SETC  '&MARGIN'                                                24200002
&NRCHAR  SETA  &REMAIN                                                  24300002
.MORE    ANOP                                                           24400002
&TEXT    SETC  ''                                                       24500002
         AIF (&REMAIN EQ 0).ENDTEXT                                     24600002
&TEXT    SETC  '&SYSLIST(&OP)'(&START,&NRCHAR)                          24700002
.ENDTEXT ANOP                                                           24800002
&LABELNR SETA  &LABELNR+1                                               24900002
&LABELS(&LABELNR) SETC '&TEXT'.'&TACK'                                  25000002
&START   SETA  &START+8                                                 25100002
         AIF ('&TACK' EQ '').LOOPIN                                     25200002
         AIF ('&TACK' EQ '*').LOOPOUT                                   25300002
         MEND                                                           25400002
         SPACE 2                                                        25500002
         MACRO                                                          25600002
         LSTART                                                         25700002
.*                            THIS MACRO IS ISSUED WHEN THE LABEL AREA  25800002
.*                                 OF THE TABLE IS TO BEGIN.            25900002
         GBLC &LABELS(2000)                                             26000002
         GBLA  &LABELNR                                                 26100002
         GBLC  &LBL(100)                                                26200002
         GBLA  &LBLCTR(100)                                             26300002
         LCLA  &NDX,&CTR                                                26400002
         LINEND                                                         26500002
&CTR     SETA  1                                                        26600002
.LOOP    ANOP                                                           26700002
&NDX     SETA  &NDX+1                                                   26800002
         AIF   (&LBLCTR(&CTR) NE &NDX).NOLBL                            26900002
&LBL(&CTR) DC  C'&LABELS(&NDX)'                                         27000002
&CTR     SETA  &CTR+1                                                   27100002
         AGO   .LOOPCTL                                                 27200002
.NOLBL   ANOP                                                           27300002
         DC    C'&LABELS(&NDX)'                                         27400002
.LOOPCTL AIF   (&NDX LT &LABELNR).LOOP                                  27500002
         MEND                                                           27600002
         SPACE 2                                                        27700002
*  BIN MACRO     BIN MACRO     BIN MACRO     BIN MACRO     BIN MACRO  * 27800002
         SPACE 2                                                        27900002
         MACRO                                                          28000002
         BIN   &LOGITEM,&SKIP$OR                                        28100002
.*                                 &LOGITEM - NAME OF ITEM IN LOG       28200002
.*                                      RECORD DSECT                    28300002
.*                                 &SKIP$OR - NBR OF SPACES TO SKIP ON  28400002
.*                                 MULTIPLE PRINT OR NBR OF SPACES      28500002
.*                                      TO BACK UP FROM COLUMN FOR      28600002
.*                                      START OF PRINTING. THE LETTER   28700002
.*                                      B PRECEEDS THE NUMBER (B5) IF   28800002
.*                                      THE LATTER IS DESIRED. OMISSION 28900002
.*                                      OF THIS OPERAND FORCES OPTION 2 29000002
.*                                      WITH BACKUP SPACING EQUAL TO    29100002
.*                                 THE NUMBER OF BITS IN THE ITEM       29200002
.*                                 DEFINITION (VIA MACRO 'DSGEN').      29300002
.*                            A LIMIT OF 15 BITS IS IMPOSED FOR THE     29400002
.*                                 TOTAL NUMBER OF BITS TO PRINT.       29500002
         GBLC &ITEM(1000)                                               29600002
         GBLA &ITEMNBR,&BITS(1000),&SHIFT(1000),&NRENTS                 29700002
         GBLC  &DSECT                                                   29800002
         LCLB  &B                                                       29900002
         LCLA  &IBITS,&NDX,&ISHIFT,&K                                   30000002
         LCLA  &TEMP,&T                                                 30100002
         LCLC  &S                                                       30200002
.LOOP    ANOP                                                           30300002
&NDX     SETA  &NDX+1                                                   30400002
         AIF   ('&ITEM(&NDX)' EQ '&LOGITEM').FOUND                      30500002
         AIF   (&NDX LT &ITEMNBR).LOOP                                  30600002
         MNOTE *,'YOU BLEW IT'                                          30700002
         ROUTINE DUM,SKIPPER                                            30800002
         MEXIT                                                          30900002
.FOUND   ANOP                                                           31000002
&ISHIFT  SETA  &SHIFT(&NDX)                                             31100002
&IBITS   SETA  &BITS(&NDX)                                              31200002
&T       SETA  &IBITS-1                                                 31300002
&B       SETB  0                                                        31400002
         AIF   ('&SKIP$OR' EQ '').BACKUP                                31500002
&K       SETA  K'&SKIP$OR                                               31600002
&B       SETB  ('&SKIP$OR'(1,1) EQ 'B')                                 31700002
&S       SETC  '&SKIP$OR'(&B+1,&K-&B)                                   31800002
&T       SETA  &S                                                       31900002
.BACKUP  ANOP                                                           32000002
&NRENTS  SETA  &NRENTS+1                                                32100002
&TEMP    SETA  &ISHIFT                                                  32200002
A&SYSNDX DC    AL.12(&LOGITEM-&DSECT),XL.4'&TEMP'                       32300002
         AIF (&IBITS EQ 1 AND &B EQ 0).OUT                              32400002
         ROUTINE    YVOL5,CHKVOL                                        32500002
         ORG   A&SYSNDX                                                 32600002
&B       SETB  1                                                        32700002
         DC    AL.12(&LOGITEM-&DSECT),XL.4'C'                           32800002
         DC    BL.1'&B',AL.7(&T),AL.4(&IBITS),FL.4'&ISHIFT'             32900002
.OUT     ANOP                                                           33000002
         MEND                                                           33100002
         EJECT                                                          33200002
*  HEX MACRO     HEX MACRO     HEX MACRO    HEXN MACRO     HEX MACRO  * 33300002
         SPACE 2                                                        33400002
         MACRO                                                          33500002
         HEX   &LOGITEM,&SKIP$OR,&BYTES                                 33600002
.*                                 CONVERSIONS.                         33700002
.*                            &LOGITEM - NAME OF DATA ITEM TO BE        33800002
.*                                 CONVERTED                            33900002
.*                            &SKIP$OR - NUMBER OF SPACES TO SKIP ON    34000002
.*                                 MULTIPLE PRINT OR NBR OF SPACES TO   34100002
.*                                 BACK UP FROM COLUMN FOR START OF     34200002
.*                                 PRINTING. THE LETTER B PRECEEDS THE  34300002
.*                                 NUMBER (B8) IF THE LATTER OPTION IS  34400002
.*                                 DESIRED. OMISSION OF THIS OPERAND    34500002
.*                                 FORCES OPTION 2 WITH BACKUP SPACING  34600002
.*                                 EQUAL TO THE NUMBER OF BYTES SPECI-  34700002
.*                                 FIED BY THE NEXT OPERAND (TWICE THIS 34800002
.*                                 NUMBER IF SUFFIX IS EXPLICITLY OR    34900002
.*                                 IMPLICITLY B).                       35000002
.*                            &BYTES - NUMBER OF TOTAL INPUT BYTES TO   35100002
.*                                 PROCESS. THIS NUMBER IS SUFFIXED     35200002
.*                                 WITH AN L,R, OR B TO STIPULATE       35300002
.*                                 PRINTING OF THE LEFT HALF, RIGHT     35400002
.*                                 HALF, OR BOTH HALVES OF THE BYTE     35500002
.*                                 RESPECTIVELY. OMISSION OF THIS       35600002
.*                                 OPERAND DEFAULTS TO B WITH THE NUM-  35700002
.*                                 BER OF BYTES EQUAL TO THE ITEM LNGTH 35800002
.*                            A NEW ENTRY IS GENERATED ONLY WHEN NECES- 35900002
.*                                 SARY. THIS MACRO MUST BE THE FIRST   36000002
.*                                 MACRO INSTRUCTION ISSUED FOR THE     36100002
.*                                 SUBJECT LINE(S).                     36200002
         GBLC &ITEM(1000),&DSECT                                        36300002
         GBLA &ITEMNBR,&BITS(1000),&SHIFT(1000),&NRENTS                 36400002
         LCLB  &B                                                       36500002
         LCLA  &IBITS,&NDX,&ISHIFT,&K,&T,&CODE,&BYTESP                  36600002
         LCLC  &S,&LETTER                                               36700002
.LOOP    ANOP                                                           36800002
&NDX     SETA  &NDX+1                                                   36900002
         AIF   ('&ITEM(&NDX)' EQ '&LOGITEM').FOUND                      37000002