         TITLE 'IFCEI135 MODEL 135 CHANNEL EDIT'                        00050002
         MACRO                                                          00100002
&NAME    DSGEN                                                          00150002
.*                            THIS MACRO GENERATES ONE DSECT WORD       00200002
.*                                 FORMATTED FOR THE SUBJECT LOG RECORD 00250002
.*                                 EACH OPERAND HAS TWO SUB LISTS. THE  00300002
.*                                 FIRST IS THE NAME OF THE LOG ITEM    00350002
.*                                 WHILE THE SECOND IS THE # OF BITS TO 00400002
.*                                 ALLOCATE FOR THIS ITEM. ITEMS MUST   00450002
.*                                 BE DEFINED CONTIGUOUSLY WITHOUT GAPS 00500002
.*                                 UNUSED BIT GROUPS MUST BE GIVEN      00550002
.*                                 DUMMY NAMES. THE NAMES PROVIDED FOR  00600002
.*                                 THE LOG ITEMS MAY THEN BE USED IN    00650002
.*                                 THE CONVERSION MACRO INSTRUCTIONS.   00700002
         GBLC &ITEM(1500)                                               00750002
         GBLA &ITEMNBR,&BITS(1500),&SHIFT(1500)                         00800002
         LCLB  &ONLY1,&CTIND                                            00850002
         LCLA  &START1,&START2,&END1,&END2                              00900002
         LCLC  &SYMBOL,&EQUSYM                                          00950002
         LCLA  &OP,&COUNT,&BYTE,&EQUCNT                                 01000002
         ACTR  100000                                                   01050002
.START   AIF   (N'&SYSLIST(&OP+1) LT 3).LOOP                            01100002
         AIF   ('&SYSLIST(&OP+1,3)' EQ 'EQU').LOOP     TEST FOR EQU     01150002
  AIF   ('&SYSLIST(&OP+1,3)' EQ '' AND '&SYSLIST(&OP+1,4)' EQ '').ERR1  01200002
  AIF   ('&SYSLIST(&OP+1,3)' EQ '' OR '&SYSLIST(&OP+1,4)' EQ '').ERR1   01250002
         AIF   ('&SYSLIST(&OP+1,3)' GT '&SYSLIST(&OP+1,4)').ERR3        01300002
&START1  SETA  &SYSLIST(&OP+1,3)        GET START COUNT OF 1            01350002
&START2  SETA  &SYSLIST(&OP+1,4)        GET FIRST END COUNT             01400002
         AGO   .SET2A                   BRANCH AROUND                   01450002
.ERR1    MNOTE '**FIRST SYMBOL CONCATENATION INCOMPLETE**'              01500002
         MEXIT                                                          01550002
.SET2A   AIF   ('&SYSLIST(&OP+1,5)' EQ ''AND '&SYSLIST(&OP+1,6)' EQ '' X01600002
               ).SET2                   TEST FOR NO SECOND              01650002
  AIF   ('&SYSLIST(&OP+1,5)' EQ '' OR '&SYSLIST(&OP+1,6)' EQ '').ERR2   01700002
         AIF   ('&SYSLIST(&OP+1,5)' GT '&SYSLIST(&OP+1,6)').ERR3        01750002
&END1    SETA  &SYSLIST(&OP+1,5)        GET START COUNT OF 2            01800002
&END2    SETA  &SYSLIST(&OP+1,6)        GET END COUNT OF 2              01850002
         AGO   .LOOP                                                    01900002
.SET2    ANOP                                                           01950002
&ONLY1   SETB  1                        INDICATE ONLY ONE CONCATENATION 02000002
         AGO   .LOOP                                                    02050002
.ERR2    MNOTE '**SECOND SYMBOL CONCATENATION INCOMPLETE**'             02100002
         MEXIT                                                          02150002
.ERR3    MNOTE '**START GREATER THAN END CONCATENATION**'               02200002
         MEXIT                                                          02250002
.LOOP    ANOP                                                           02300002
&OP      SETA  &OP+1                                                    02350002
         AIF   (&OP GT N'&SYSLIST).DONE      TEST IF ALL DONE           02400002
&ITEMNBR SETA  &ITEMNBR+1                                               02450002
         AIF   ('&SYSLIST(&OP,2)' NE '').OK1                            02500002
         MNOTE '**NULL BIT COUNT FIELD**'                               02550002
         MEXIT                                                          02600002
.OK1     ANOP                                                           02650002
&SYMBOL  SETC  '&SYSLIST(&OP,1)'                                        02700002
         AIF   ('&SYMBOL' NE '').OK                                     02750002
*              *****     LOG ITEM SYMBOL NOT PROVIDED     *****         02800002
         AIF   ('&SYSLIST(&OP,3)' NE 'EQU').CNT                         02850002
         AGO   .START                   GET NEXT                        02900002
.OK      AIF   (N'&SYSLIST(&OP) LT 3).NO3    TEST FOR OLD FORMAT        02950002
         AIF   ('&SYSLIST(&OP,3)' EQ 'EQU').EQU   TEST FOR EQU          03000002
         AIF   (&ONLY1).OK2             TEST FOR ONLY ONE CONCAT        03050002
&SYMBOL  SETC  '&SYMBOL.&START1.&END1'       GET 1 AND 2 CONCAT         03100002
         AGO   .NO3                     BRANCH AROUND                   03150002
.OK2     ANOP                                                           03200002
&SYMBOL  SETC  '&SYMBOL.&START1'        GET 1 CONCATENATED              03250002
.NO3     ANOP                                                           03300002
&SYMBOL  EQU   *+&BYTE                                                  03350002
&ITEM(&ITEMNBR) SETC '&SYMBOL'          GET LABEL IN GLOBAL             03400002
&BITS(&ITEMNBR) SETA &SYSLIST(&OP,2)                                    03450002
&SHIFT(&ITEMNBR) SETA &COUNT-&BYTE*8                                    03500002
.CNT     ANOP                                                           03550002
&CTIND   SETB  1                        SET COUNT INDICATOR             03600002
&COUNT   SETA  &COUNT+&SYSLIST(&OP,2)                                   03650002
&BYTE    SETA  &COUNT/8                                                 03700002
         AIF   (N'&SYSLIST(&OP) LT 3).START  TEST FOR OLD FORMAT        03750002
         AIF   (&ONLY1).TSTST           TEST FOR ONLY ONE CONCAT        03800002
         AIF   (&END1 EQ &END2).TSTST   TEST FOR SECOND END             03850002
&END1    SETA  &END1+1                  INCREMENT COUNT                 03900002
&OP      SETA  &OP-1                    DECREMENT INCREMENT             03950002
         AGO   .LOOP                    GENERATE NEXT                   04000002
.TSTST   ANOP                                                           04050002
         AIF   (&START1 EQ &START2).LPDONE   TEST FOR END               04100002
         AIF   (&ONLY1).NSET1           TEST FOR ONLY ONE CONCAT        04150002
&END1    SETA  &SYSLIST(&OP,5)          RE-INIT SECOND START COUNT      04200002
.NSET1   ANOP                                                           04250002
&OP      SETA  &OP-1                    DECREMENT INDEX                 04300002
&START1  SETA  &START1+1                INCREMENT FIRST COUNT           04350002
         AGO   .LOOP                    GO DO NEXT                      04400002
.LPDONE  ANOP                                                           04450002
&ONLY1   SETB  0                        CLEAR INDICATOR                 04500002
         AGO   .START                   GO TEST FOR MORE SUB-LISTS      04550002
.DONE    AIF   (&COUNT-&COUNT/8*8 NE 0).ERR  TEST FOR MULTIPLE OF EIGHT 04600002
         AIF   (&CTIND EQ 0).END        NO DS IF NO COUNT               04650002
&COUNT   SETA  &COUNT/8                 GET NUMBER OF BYTES             04700002
&NAME    DS    &COUNT.C                                                 04750002
.END     MEXIT                                                          04800002
.ERR     MNOTE '**BIT COUNT FLDS DO NOT TOTAL MULTIPLE OF 8**'          04850002
         MEXIT                                                          04900002
.EQU     AIF   ('&SYSLIST(&OP,4)' NE '').EQU1     TEST FOR NULL LABEL   04950002
.ERR4    MNOTE '**EQU OPERAND OMITTED OR NOT FOUND**'                   05000002
         MEXIT                                                          05050002
.EQU1    AIF   (&SYSLIST(&OP,2) LT 16).EQU2  COUNT OVER FIFTEEN         05100002
*****               THE FOLLOWING STATEMENT                *****        05150002
*****     NUMBER OF BITS EXCEED 15 - DO NOT USE AS BIN     *****        05200002
.EQU2    ANOP                                                           05250002
&EQUCNT  SETA  0                        CLEAR COUNTER                   05300002
&EQUSYM  SETC  '&SYSLIST(&OP,4)'        GET EQU OPERAND                 05350002
.EQULOP  ANOP                                                           05400002
&EQUCNT  SETA  &EQUCNT+1                INCREMENT INDEX                 05450002
         AIF   ('&ITEM(&EQUCNT)' EQ '&EQUSYM').EQUOUT  LABEL FOUND?     05500002
         AIF   (&EQUCNT EQ &ITEMNBR).ERR4    ALL TESTED?                05550002
         AGO   .EQULOP                  NO-GET NEXT                     05600002
.EQUOUT  ANOP                                                           05650002
&ITEM(&ITEMNBR) SETC '&SYMBOL'          GET LABEL NAME                  05700002
&BITS(&ITEMNBR) SETA &SYSLIST(&OP,2)    GET NUMBER OF BITS              05750002
&SHIFT(&ITEMNBR) SETA &SHIFT(&EQUCNT)   GET SHIFT COUNT                 05800002
&SYMBOL  EQU   &EQUSYM                  THIS SYMBOL EQUATED             05850002
         AGO   .START                   RETURN FOR NEXT                 05900002
         MEND                                                           05950002
         EJECT                                                          06000002
*  LINE MACRO     LINE MACRO     LINE MACRO     LINE MACRO            * 06050002
         SPACE 2                                                        06100002
         MACRO                                                          06150002
&NAME    LINE  &DATA,&LABEL,&SKIP=                                      06200002
.*                            THIS MACRO ESTABLISHES THE MARGINS OR     06250002
.*                                 COLUMN SETTINGS FOR EACH LINE. IT    06300002
.*                                 GENERATES NECESSARY CARRIAGE CONTROL 06350002
.*                                 ENTRIES. LASTLY IT DETERMINES THE    06400002
.*                                 NUMBER OF ENTRIES ASSOCIATED WITH    06450002
.*                                 THE PREVIOUS LINE AND STORES THAT #  06500002
.*                                 INTO THE APPROPRIATE BYTE.           06550002
.*                            &DATA(1) - CHARACTER POSITION TO BEGIN    06600002
.*                                 DATA.                                06650002
.*                            &DATA(2) - # OF SPACES BETWEEN SUCCESSIVE 06700002
.*                                 DATA COLUMN STARTING CHARACTERS.     06750002
.*                            &LABEL(1) - CHAR. POS. TO BEGIN LABELS.   06800002
.*                            &LABEL(2) - # SPACES BETWEEN LINE'S LABEL 06850002
.*                                 STARTING CHARACTERS.                 06900002
.*                            &SKIP= - # OF LINES TO ADVANCE CARRIAGE   06950002
.*                                 TO BEGIN NEXT PRINTED LINE.          07000002
.*                            NEW ENTRIES ARE GENERATED ONLY WHEN       07050002
.*                                 NECESSARY. OMISSION OF ITEMS MEANS   07100002
.*                                 THEY HAVE NOT CHANGED SINCE PREVIOUS 07150002
.*                                 SETTINGS. A LINE MACRO IS REQUIRED   07200002
.*                                 FOR EACH PRINTED LINE. IF NO SETTING 07250002
.*                                 CHANGES ARE REQUIRED ALL OPERANDS    07300002
.*                                 ARE OMITTED IN WHICH CASE ONLY THE   07350002
.*                                 # OF ENTRIES FOR THE PREVIOUS LINE   07400002
.*                                 IS COMPUTED. THIS MACRO MUST BE THE  07450002
.*                                 FIRST MACRO INSTRUCTION ISSUED FOR   07500002
.*                                 THE SUBJECT LINE                     07550002
         GBLA  &DB,&DT,&LB,&LT,&NRENTS                                  07600002
         GBLA  &LASTCC,&INITIAL                                         07650002
         GBLC  &NRENTSX                                                 07700002
         GBLC  &CARRCON                                                 07750002
         GBLB  &TEST                                                    07800002
         LCLA  &S                                                       07850002
&NAME    DS    0C                                                       07900002
         AIF   (&INITIAL EQ 0).FIRSTLN                                  07950002
         LINEND                                                         08000002
         AGO   .NTFIRST                                                 08050002
.FIRSTLN ANOP                                                           08100002
&NRENTSX SETC  'N&SYSNDX'                                               08150002
&INITIAL SETA  1                                                        08200002
N&SYSNDX EQU   *                                                        08250002
.NTFIRST ANOP                                                           08300002
         DC    AL1(0)                                                   08350002
         AIF   ('&DATA(1)' EQ '').CKDTABS                               08400002
         AIF   (&DATA(1) EQ &DB).CKDTABS                                08450002
&DB      SETA  &DATA(1)                                                 08500002
         AGO   .AA                                                      08550002
.CKDTABS AIF   ('&DATA(2)' EQ '').NCDATA                                08600002
         AIF   (&DATA(2) EQ &DT).NCDATA                                 08650002
         AGO   .CC                                                      08700002
.AA      AIF   ('&DATA(2)' EQ '').BB                                    08750002
         AIF   (&DATA(2) EQ &DT).BB                                     08800002
.CC      ANOP                                                           08850002
&DT      SETA  &DATA(2)                                                 08900002
.BB      DC    XL2'FFFE'                                                08950002
         DC    FL1'&DB'                                                 09000002
         DC    FL1'&DT'                                                 09050002
&NRENTS  SETA  &NRENTS+1                                                09100002
.NCDATA  ANOP                                                           09150002
         AIF   ('&LABEL(1)' EQ '').CKLTABS                              09200002
         AIF   (&LABEL(1) EQ &LB).CKLTABS                               09250002
&LB      SETA  &LABEL(1)                                                09300002
         AGO   .AAA                                                     09350002
.CKLTABS AIF   ('&LABEL(2)' EQ '').NCLABEL                              09400002
         AIF   (&LABEL(2) EQ &LT).NCLABEL                               09450002
         AGO   .CCC                                                     09500002
.AAA     AIF   ('&LABEL(2)' EQ '').BBB                                  09550002
         AIF   (&LABEL(2) EQ &LT).BBB                                   09600002
.CCC     ANOP                                                           09650002
&LT      SETA  &LABEL(2)                                                09700002
.BBB     DC    XL2'FFFF'                                                09750002
         DC    FL1'&LB'                                                 09800002
         DC    FL1'&LT'                                                 09850002
&NRENTS  SETA  &NRENTS+1                                                09900002
.NCLABEL ANOP                                                           09950002
         AIF   ('&SKIP' NE '').CONT                                     10000002
         AIF   (&TEST EQ 0).NOCHANG                                     10050002
&S       SETA  &LASTCC                                                  10100002
         AGO   .DEFAULT                                                 10150002
.CONT    ANOP                                                           10200002
         AIF   (&TEST EQ 0).AB                                          10250002
&S       SETA  &SKIP                                                    10300002
.DEFAULT ANOP                                                           10350002
         ORG   &CARRCON+3                                               10400002
         DC    AL.3(0),AL.2(&S),AL.3(1)                                 10450002
         ORG                                                            10500002
&LASTCC  SETA  &S                                                       10550002
&TEST    SETB  0                                                        10600002
         AGO   .DD                                                      10650002
.AB      AIF   (&SKIP EQ &LASTCC).NOCHANG                               10700002
A&SYSNDX DC    XL2'FFFB'                                                10750002
         DC    AL.3(0),AL.2(&SKIP),AL.3(1)                              10800002
         DC    FL1'9'                                                   10850002
&LASTCC  SETA  &SKIP                                                    10900002
&TEST    SETB  1                                                        10950002
&CARRCON SETC  'A&SYSNDX'                                               11000002
&NRENTS  SETA  &NRENTS+1                                                11050002
.DD      ANOP                                                           11100002
.NOCHANG ANOP                                                           11150002
         MEND                                                           11200002
         EJECT                                                          11250002
*  BIN MACRO     BIN MACRO     BIN MACRO     BIN MACRO     BIN MACRO  * 11300002
         SPACE 2                                                        11350002
         MACRO                                                          11400002
         BIN                                                            11430002
.*                                 &SYSLIST(&OP,1) - NAME OF LOG ITEM   11460002
.*                                      RECORD DSECT                    11490002
.*                                 $SYSLIST(&OP,2) - NBR OF SPACES      11520002
.*                                      TO SKIP ON MULTIPLE             11550002
.*                                      PRINT OR NBR OF SPACES          11580002
.*                                      TO BACK UP FROM COLUMN FOR      11610002
.*                                      START OF PRINTING. THE LETTER   11640002
.*                                      B PRECEEDS THE NUMBER (B5) IF   11670002
.*                                      THE LATTER IS DESIRED. OMISSION 11700002
.*                                      OF THIS OPERAND FORCES OPTION 2 11730002
.*                                      WITH BACKUP SPACING EQUAL TO    11760002
.*                                 THE NUMBER OF BITS IN THE ITEM       11790002
.*                                 DEFINITION (VIA MACRO 'DSGEN').      11820002
.*                            A LIMIT OF 15 BITS IS IMPOSED FOR THE     11850002
.*                                 TOTAL NUMBER OF BITS TO PRINT.       11880002
         GBLC &ITEM(1500)                                               11910002
         GBLA &ITEMNBR,&BITS(1500),&SHIFT(1500),&NRENTS                 11940002
         GBLC  &DSECT                                                   11970002
         LCLB  &B,&SUB                                                  12000002
         LCLA  &IBITS,&NDX,&ISHIFT,&K                                   12030002
         LCLA  &TEMP,&T,&OP                                             12060002
         LCLC  &S                                                       12090002
         AIF   (K'&SYSLIST(1) EQ K'&SYSLIST(1,1)).LOOP                  12120002
&SUB     SETB  1                                                        12150002
.LOOP    ANOP                                                           12180002
&OP      SETA  &OP+1                                                    12210002
.LOOP1   ANOP                                                           12240002
&NDX     SETA  &NDX+1                                                   12270002
         AIF   ('&ITEM(&NDX)' EQ '&SYSLIST(&OP,1)').FOUND               12300002
         AIF   (&NDX LT &ITEMNBR).LOOP1                                 12330002
         MNOTE *,'YOU BLEW IT'                                          12360002
         ROUTINE DUM,SKIPPER                                            12390002
         MEXIT                                                          12420002
.FOUND   ANOP                                                           12450002
&ISHIFT  SETA  &SHIFT(&NDX)                                             12480002
&IBITS   SETA  &BITS(&NDX)                                              12510002
&T       SETA  &IBITS-1                                                 12540002
&B       SETB  0                                                        12570002
         AIF   (&SUB EQ 1).SUBA                                         12600002
         AIF   ('&SYSLIST(2)' EQ '').BACKUP                             12630002
&K       SETA  K'&SYSLIST(2)                                            12660002
&B       SETB  ('&SYSLIST(2)'(1,1) EQ 'B')                              12690002
&S       SETC  '&SYSLIST(2)'(&B+1,&K-&B)                                12720002
         AGO   .SUBB                                                    12750002
.SUBA    ANOP                                                           12780002
         AIF   ('&SYSLIST(&OP,2)' EQ '').BACKUP                         12810002
&K       SETA  K'&SYSLIST(&OP,2)                                        12840002
&B       SETB  ('&SYSLIST(&OP,2)'(1,1) EQ 'B')                          12870002
&S       SETC  '&SYSLIST(&OP,2)'(&B+1,&K-&B)                            12900002
.SUBB    ANOP                                                           12930002
&T       SETA  &S                                                       12960002
.BACKUP  ANOP                                                           12990002
&NRENTS  SETA  &NRENTS+1                                                13020002
&TEMP    SETA  &ISHIFT                                                  13050002
         AIF   (&IBITS NE 1 OR &B NE 0).BIN2                            13080002
         DC    AL.12(&SYSLIST(&OP,1)-&DSECT),XL.4'&TEMP'                13110002
         AGO   .OUT                                                     13140002
.BIN2    AIF   ('&SYSLIST(&OP,2)' NE '').BIN3                           13170002
&B       SETB  1                                                        13200002
.BIN3    ANOP                                                           13230002
         DC    AL.12(&SYSLIST(&OP,1)-&DSECT),XL.4'C'                    13260002
         DC    BL.1'&B',AL.7(&T),AL.4(&IBITS),FL.4'&ISHIFT'             13290002
.OUT     ANOP                                                           13320002
&NDX     SETA  0                                                        13350002
         AIF   (&SUB EQ 0).OUTA                                         13380002
         AIF   (&OP LT N'&SYSLIST).LOOP                                 13410002
.OUTA    ANOP                                                           13440002
         MEND                                                           13470002
         EJECT                                                          13850002
*  HEX MACRO     HEX MACRO     HEX MACRO    HEXN MACRO     HEX MACRO  * 13900002
         SPACE 2                                                        13950002
         MACRO                                                          14000002
         HEX   &LOGITEM,&SKIP$OR,&BYTES                                 14050002
.*                            THIS MACRO FACILITATES GENERATION OF THE  14100002
.*                                 TABLE ENTRIES SPECIFYING HEX TYPE    14150002
.*                                 CONVERSIONS.                         14200002
.*                            &LOGITEM - NAME OF DATA ITEM TO BE        14250002
.*                                 CONVERTED                            14300002
.*                            &SKIP$OR - NUMBER OF SPACES TO SKIP ON    14350002
.*                                 MULTIPLE PRINT OR NBR OF SPACES TO   14400002
.*                                 BACK UP FROM COLUMN FOR START OF     14450002
.*                                 PRINTING. THE LETTER B PRECEEDS THE  14500002
.*                                 NUMBER (B8) IF THE LATTER OPTION IS  14550002
.*                                 DESIRED. OMISSION OF THIS OPERAND    14600002
.*                                 FORCES OPTION 2 WITH BACKUP SPACING  14650002
.*                                 EQUAL TO THE NUMBER OF BYTES SPECI-  14700002
.*                                 FIED BY THE NEXT OPERAND (TWICE THIS 14750002
.*                                 NUMBER IF SUFFIX IS EXPLICITLY OR    14800002
.*                                 IMPLICITLY B).                       14850002
.*                            &BYTES - NUMBER OF TOTAL INPUT BYTES TO   14900002
.*                                 PROCESS. THIS NUMBER IS SUFFIXED     14950002
.*                                 WITH AN L,R, OR B TO STIPULATE       15000002
.*                                 PRINTING OF THE LEFT HALF, RIGHT     15050002
.*                                 HALF, OR BOTH HALVES OF THE BYTE     15100002
.*                                 RESPECTIVELY. OMISSION OF THIS       15150002
.*                                 OPERAND DEFAULTS TO B WITH THE NUM-  15200002
.*                                 BER OF BYTES EQUAL TO THE ITEM LNGTH 15250002
.*                            A NEW ENTRY IS GENERATED ONLY WHEN NECES- 15300002
.*                                 SARY. THIS MACRO MUST BE THE FIRST   15350002
.*                                 MACRO INSTRUCTION ISSUED FOR THE     15400002
.*                                 SUBJECT LINE(S).                     15450002
         GBLC  &ITEM(1500),&DSECT                                       15500002
         GBLA  &ITEMNBR,&BITS(1500),&SHIFT(1500),&NRENTS                15550002
         LCLB  &B                                                       15600002
         LCLA  &IBITS,&NDX,&ISHIFT,&K,&T,&CODE,&BYTESP                  15650002
         LCLC  &S,&LETTER                                               15700002
.LOOP    ANOP                                                           15750002
&NDX     SETA  &NDX+1                                                   15800002
         AIF   ('&ITEM(&NDX)' EQ '&LOGITEM').FOUND                      15850002
         AIF   (&NDX LT &ITEMNBR).LOOP                                  15900002
         MNOTE *,'LOG ITEM NOT DEFINED'                                 15950002
         MEXIT                                                          16000002
.FOUND   ANOP                                                           16050002
&ISHIFT  SETA  &SHIFT(&NDX)                                             16100002
&IBITS   SETA  &BITS(&NDX)                                              16150002
&CODE    SETA  1                                                        16200002
&K       SETA  K'&BYTES                                                 16250002
         AIF   (&IBITS-(&IBITS/4)*4 EQ 0).OK                            16300002
         MNOTE *,'BIT LENGTH SPECIFICATION INCONSISTENT WITH CONTROL'   16350002
         MEXIT                                                          16400002
.OK      AIF   ('&BYTES' EQ '').USEDEFN                                 16450002
&LETTER  SETC  '&BYTES'(&K,1)                                           16500002
&S       SETC  '&BYTES'(1,&K-1)                                         16550002
&BYTESP  SETA  &S                                                       16600002
         AIF   ('&LETTER' EQ 'B').BOTH                                  16650002
         AIF   (&ISHIFT EQ 0 OR &ISHIFT EQ 4).OK2                       16700002
.ERR     MNOTE *,'DATA NOT ALLIGNED ON HEX OR BYTE BOUNDARY'            16750002
         MEXIT                                                          16800002
.USEDEFN ANOP                                                           16850002
&BYTESP  SETA  &IBITS/8                                                 16900002
.BOTH    AIF   (&ISHIFT NE 0).ERR                                       16950002
&CODE    SETA  3                                                        17000002
&T       SETA  &BYTESP*2-1                                       XM5997 17050002
&S       SETC  '&T'                                                     17100002
.OK2     AIF   (&ISHIFT EQ 0).L                                         17150002
&CODE    SETA  2                                                        17200002
.L       ANOP                                                           17250002
&B       SETB  1                                                        17300002
         AIF   ('&SKIP$OR' EQ '').BACKUP                                17350002
&K       SETA  K'&SKIP$OR                                               17400002
&B       SETB  ('&SKIP$OR'(1,1) EQ 'B')                                 17450002