         TITLE 'I F C E W I N 1  EDIT TABLE FOR 3340 SNB''S 0-7 AND FMTC00050002
                1 8-23'                                                 00100002
***  DSGEN MACRO     DSGEN MACRO     DSGEN MACRO     DSGEN MACRO    *** 00150002
         SPACE                                                          00200002
         MACRO                                                          00250002
&NAME    DSGEN                                                          00300002
.*                            THIS MACRO GENERATES ONE DSECT WORD       00350002
.*                                 FORMATTED FOR THE SUBJECT LOG RECORD 00400002
.*                                 EACH OPERAND HAS TWO SUB LISTS. THE  00450002
.*                                 FIRST IS THE NAME OF THE LOG ITEM    00500002
.*                                 WHILE THE SECOND IS THE # OF BITS TO 00550002
.*                                 ALLOCATE FOR THIS ITEM. ITEMS MUST   00600002
.*                                 BE DEFINED CONTIGUOUSLY WITHOUT GAPS 00650002
.*                                 UNUSED BIT GROUPS MUST BE GIVEN      00700002
.*                                 DUMMY NAMES. THE NAMES PROVIDED FOR  00750002
.*                                 THE LOG ITEMS MAY THEN BE USED IN    00800002
.*                                 THE CONVERSION MACRO INSTRUCTIONS.   00850002
         GBLA  &BITS(3000),&ITEMNBR,&SHIFT(3000)                        00900002
         GBLC  &ITEM(3000)                                              00950002
         LCLB  &ONLY1,&CTIND                                            01000002
         LCLA  &START1,&START2,&END1,&END2                              01050002
         LCLC  &SYMBOL,&EQUSYM                                          01100002
         LCLA  &OP,&COUNT,&BYTE,&EQUCNT                                 01150002
         ACTR  100000                                                   01200002
.START   AIF   (N'&SYSLIST(&OP+1) LT 3).LOOP                            01250002
         AIF   ('&SYSLIST(&OP+1,3)' EQ 'EQU').LOOP     TEST FOR EQU     01300002
  AIF   ('&SYSLIST(&OP+1,3)' EQ '' OR '&SYSLIST(&OP+1,4)' EQ '').ERR1   01350002
         AIF   ('&SYSLIST(&OP+1,3)' GT '&SYSLIST(&OP+1,4)').ERR3        01400002
&START1  SETA  &SYSLIST(&OP+1,3)        GET START COUNT OF 1            01450002
&START2  SETA  &SYSLIST(&OP+1,4)        GET FIRST END COUNT             01500002
         AGO   .SET2A                   BRANCH AROUND                   01550002
.ERR1    MNOTE '**FIRST SYMBOL CONCATENATION INCOMPLETE**'              01600002
         MEXIT                                                          01650002
.SET2A   AIF   ('&SYSLIST(&OP+1,5)' EQ ''AND '&SYSLIST(&OP+1,6)' EQ '' X01700002
               ).SET2                   TEST FOR NO SECOND              01750002
  AIF   ('&SYSLIST(&OP+1,5)' EQ '' OR '&SYSLIST(&OP+1,6)' EQ '').ERR2   01800002
         AIF   ('&SYSLIST(&OP+1,5)' GT '&SYSLIST(&OP+1,6)').ERR3        01850002
&END1    SETA  &SYSLIST(&OP+1,5)        GET START COUNT OF 2            01900002
&END2    SETA  &SYSLIST(&OP+1,6)        GET END COUNT OF 2              01950002
         AGO   .LOOP                                                    02000002
.SET2    ANOP                                                           02050002
&ONLY1   SETB  1                        INDICATE ONLY ONE CONCATENATION 02100002
         AGO   .LOOP                                                    02150002
.ERR2    MNOTE '**SECOND SYMBOL CONCATENATION INCOMPLETE**'             02200002
         MEXIT                                                          02250002
.ERR3    MNOTE '**START GREATER THAN END CONCATENATION**'               02300002
         MEXIT                                                          02350002
.LOOP    ANOP                                                           02400002
&OP      SETA  &OP+1                                                    02450002
         AIF   (&OP GT N'&SYSLIST).DONE      TEST IF ALL DONE           02500002
&ITEMNBR SETA  &ITEMNBR+1                                               02550002
         AIF   ('&SYSLIST(&OP,2)' NE '').OK1                            02600002
         MNOTE '**NULL BIT COUNT FIELD**'                               02650002
         MEXIT                                                          02700002
.OK1     ANOP                                                           02750002
&SYMBOL  SETC  '&SYSLIST(&OP,1)'                                        02800002
         AIF   ('&SYMBOL' NE '').OK                                     02850002
*              *****     LOG ITEM SYMBOL NOT PROVIDED     *****         02900002
         AIF   ('&SYSLIST(&OP,3)' NE 'EQU').CNT                         02950002
         AGO   .START                   GET NEXT                        03000002
.OK      AIF   (N'&SYSLIST(&OP) LT 3).NO3    TEST FOR OLD FORMAT        03050002
         AIF   ('&SYSLIST(&OP,3)' EQ 'EQU').EQU   TEST FOR EQU          03100002
         AIF   (&ONLY1).OK2             TEST FOR ONLY ONE CONCAT        03150002
&SYMBOL  SETC  '&SYMBOL.&START1.&END1'       GET 1 AND 2 CONCAT         03200002
         AGO   .NO3                     BRANCH AROUND                   03250002
.OK2     ANOP                                                           03300002
&SYMBOL  SETC  '&SYMBOL.&START1'        GET 1 CONCATENATED              03350002
.NO3     ANOP                                                           03400002
&SYMBOL  EQU   *+&BYTE                                                  03450002
&ITEM(&ITEMNBR) SETC '&SYMBOL'          GET LABEL IN GLOBAL             03500002
&BITS(&ITEMNBR) SETA &SYSLIST(&OP,2)                                    03550002
&SHIFT(&ITEMNBR) SETA &COUNT-&BYTE*8                                    03600002
.CNT     ANOP                                                           03650002
&CTIND   SETB  1                        SET COUNT INDICATOR             03700002
&COUNT   SETA  &COUNT+&SYSLIST(&OP,2)                                   03750002
&BYTE    SETA  &COUNT/8                                                 03800002
         AIF   (N'&SYSLIST(&OP) LT 3).START  TEST FOR OLD FORMAT        03850002
         AIF   (&ONLY1).TSTST           TEST FOR ONLY ONE CONCAT        03900002
         AIF   (&END1 EQ &END2).TSTST   TEST FOR SECOND END             03950002
&END1    SETA  &END1+1                  INCREMENT COUNT                 04000002
&OP      SETA  &OP-1                    DECREMENT INCREMENT             04050002
         AGO   .LOOP                    GENERATE NEXT                   04100002
.TSTST   ANOP                                                           04150002
         AIF   (&START1 EQ &START2).LPDONE   TEST FOR END               04200002
         AIF   (&ONLY1).NSET1           TEST FOR ONLY ONE CONCAT        04250002
&END1    SETA  &SYSLIST(&OP,5)          RE-INIT SECOND START COUNT      04300002
.NSET1   ANOP                                                           04350002
&OP      SETA  &OP-1                    DECREMENT INDEX                 04400002
&START1  SETA  &START1+1                INCREMENT FIRST COUNT           04450002
         AGO   .LOOP                    GO DO NEXT                      04500002
.LPDONE  ANOP                                                           04550002
&ONLY1   SETB  0                        CLEAR INDICATOR                 04600002
         AGO   .START                   GO TEST FOR MORE SUB-LISTS      04650002
.DONE    AIF   (&COUNT-&COUNT/8*8 NE 0).ERR  TEST FOR MULTIPLE OF EIGHT 04700002
         AIF   (&CTIND EQ 0).END        NO DS IF NO COUNT               04750002
&COUNT   SETA  &COUNT/8                 GET NUMBER OF BYTES             04800002
&NAME    DS    &COUNT.C                                                 04850002
.END     MEXIT                                                          04900002
.ERR     MNOTE '**BIT COUNT FLDS DO NOT TOTAL MULTIPLE OF 8**'          04950002
         MEXIT                                                          05000002
.EQU     AIF   ('&SYSLIST(&OP,4)' NE '').EQU1     TEST FOR NULL LABEL   05050002
.ERR4    MNOTE '**EQU OPERAND OMITTED OR NOT FOUND**'                   05100002
         MEXIT                                                          05150002
.EQU1    AIF   (&SYSLIST(&OP,2) LT 16).EQU2  COUNT OVER FIFTEEN         05200002
*****               THE FOLLOWING STATEMENT                *****        05250002
*****     NUMBER OF BITS EXCEED 15 - DO NOT USE AS BIN     *****        05300002
.EQU2    ANOP                                                           05350002
&EQUCNT  SETA  0                        CLEAR COUNTER                   05400002
&EQUSYM  SETC  '&SYSLIST(&OP,4)'        GET EQU OPERAND                 05450002
.EQULOP  ANOP                                                           05500002
&EQUCNT  SETA  &EQUCNT+1                INCREMENT INDEX                 05550002
         AIF   ('&ITEM(&EQUCNT)' EQ '&EQUSYM').EQUOUT  LABEL FOUND?     05600002
         AIF   (&EQUCNT EQ &ITEMNBR).ERR4    ALL TESTED?                05650002
         AGO   .EQULOP                  NO-GET NEXT                     05700002
.EQUOUT  ANOP                                                           05750002
&ITEM(&ITEMNBR) SETC '&SYMBOL'          GET LABEL NAME                  05800002
&BITS(&ITEMNBR) SETA &SYSLIST(&OP,2)    GET NUMBER OF BITS              05850002
&SHIFT(&ITEMNBR) SETA &SHIFT(&EQUCNT)   GET SHIFT COUNT                 05900002
&SYMBOL  EQU   &EQUSYM                  THIS SYMBOL EQUATED             05950002
         AGO   .START                   RETURN FOR NEXT                 06000002
         MEND                                                           06050002
         EJECT                                                          06100002
***  BIN MACRO       BIN MACRO       BIN MACRO       BIN MACRO      *** 06150002
         SPACE                                                          06200002
         MACRO                                                          06250002
         BIN                                                            06300002
.*                                 &SYSLIST(&OP,1) - NAME OF LOG ITEM   06350002
.*                                      RECORD DSECT                    06400002
.*                                 $SYSLIST(&OP,2) - NBR OF SPACES      06450002
.*                                      TO SKIP ON MULTIPLE             06500002
.*                                      PRINT OR NBR OF SPACES          06550002
.*                                      TO BACK UP FROM COLUMN FOR      06600002
.*                                      START OF PRINTING. THE LETTER   06650002
.*                                      B PRECEEDS THE NUMBER (B5) IF   06700002
.*                                      THE LATTER IS DESIRED. OMISSION 06750002
.*                                      OF THIS OPERAND FORCES OPTION 2 06800002
.*                                      WITH BACKUP SPACING EQUAL TO    06850002
.*                                 THE NUMBER OF BITS IN THE ITEM       06900002
.*                                 DEFINITION (VIA MACRO 'DSGEN').      06950002
.*                            A LIMIT OF 15 BITS IS IMPOSED FOR THE     07000002
.*                                 TOTAL NUMBER OF BITS TO PRINT.       07050002
         GBLA  &INITIAL                                                 07100002
         GBLB  &DIAGTST,&DIAGSET,&DIAGLIN                               07150002
         GBLC  &ITEM(3000),&DSECT                                       07200002
         GBLA  &BITS(3000),&ITEMNBR,&SHIFT(3000),&NRENTS                07250002
         LCLB  &B,&SUB                                                  07300002
         LCLA  &IBITS,&NDX,&ISHIFT,&K                                   07350002
         LCLA  &TEMP,&T,&OP                                             07400002
         LCLC  &S                                                       07450002
         ACTR  500000                                                   07500002
         AIF   (&DIAGTST EQ 0).NOMSG                                    07550002
         AIF   (&INITIAL EQ 0).NOMSG                                    07600002
         AIF   (&DIAGLIN EQ 1).NOMSG                                    07650002
         MNOTE '**NO LINE ASSOCIATED WITH THIS DATA**'                  07700002
*****THE FOLLOWING GENERATED FOR TEST PURPOSES*****                     07750002
*        LINE                                                           07800002
         LINE                                                           07850002
.NOMSG   ANOP                                                           07900002
         AIF   (K'&SYSLIST(1) EQ K'&SYSLIST(1,1)).LOOP                  07950002
&SUB     SETB  1                                                        08000002
.LOOP    ANOP                                                           08050002
&OP      SETA  &OP+1                                                    08100002
.LOOP1   ANOP                                                           08150002
&NDX     SETA  &NDX+1                                                   08200002
         AIF   ('&ITEM(&NDX)' EQ '&SYSLIST(&OP,1)').FOUND               08250002
         AIF   (&NDX LT &ITEMNBR).LOOP1                                 08300002
         MNOTE '**LOG ITEM NOT DEFINED**'                               08350002
         MEXIT                                                          08400002
.FOUND   ANOP                                                           08450002
&ISHIFT  SETA  &SHIFT(&NDX)                                             08500002
&IBITS   SETA  &BITS(&NDX)                                              08550002
         AIF   (&SUB EQ 1).SUB00                                        08600002
         AIF   ('&SYSLIST(3)' EQ '').SETT                               08650002
&IBITS   SETA  &SYSLIST(3)                                              08700002
         AGO   .SETT                                                    08750002
.SUB00   AIF   ('&SYSLIST(&OP,3)' EQ '').SETT                           08800002
&IBITS   SETA  &SYSLIST(&OP,3)                                          08850002
.SETT    ANOP                                                           08900002
&T       SETA  &IBITS-1                                                 08950002
&B       SETB  0                                                        09000002
         AIF   (&IBITS GT 0 AND &IBITS LT 16).SUB0                      09050002
         MNOTE '**NO. OF BITS OUTSIDE RANGE OF 1-15**'                  09100002
         MEXIT                                                          09150002
.SUB0    AIF   (&SUB EQ 1).SUBA                                         09200002
         AIF   ('&SYSLIST(2)' EQ '').BACKUP                             09250002
&K       SETA  K'&SYSLIST(2)                                            09300002
&B       SETB  ('&SYSLIST(2)'(1,1) EQ 'B')                              09350002
&S       SETC  '&SYSLIST(2)'(&B+1,&K-&B)                                09400002
         AGO   .SUBB                                                    09450002
.SUBA    ANOP                                                           09500002
         AIF   ('&SYSLIST(&OP,2)' EQ '').BACKUP                         09550002
&K       SETA  K'&SYSLIST(&OP,2)                                        09600002
&B       SETB  ('&SYSLIST(&OP,2)'(1,1) EQ 'B')                          09650002
&S       SETC  '&SYSLIST(&OP,2)'(&B+1,&K-&B)                            09700002
.SUBB    ANOP                                                           09750002
&T       SETA  &S                                                       09800002
.BACKUP  ANOP                                                           09850002
&NRENTS  SETA  &NRENTS+1                                                09900002
&TEMP    SETA  &ISHIFT                                                  09950002
         AIF   (&IBITS NE 1 OR &B NE 0).BIN2                            10000002
         DC    AL.12(&SYSLIST(&OP,1)-&DSECT),XL.4'&TEMP'                10050002
         AGO   .OUT                                                     10100002
.BIN2    AIF   (&SUB EQ 1).BIN2A                                        10150002
         AIF   ('&SYSLIST(2)' NE '').BIN3                               10200002
         AGO   .BIN2B                                                   10250002
.BIN2A   AIF   ('&SYSLIST(&OP,2)' NE '').BIN3                           10300002
.BIN2B   ANOP                                                           10350002
&B       SETB  1                                                        10400002
.BIN3    ANOP                                                           10450002
         DC    AL.12(&SYSLIST(&OP,1)-&DSECT),XL.4'C'                    10500002
         DC    BL.1'&B',AL.7(&T),AL.4(&IBITS),FL.4'&ISHIFT'             10550002
.OUT     ANOP                                                           10600002
&NDX     SETA  0                                                        10650002
         AIF   (&SUB EQ 0).OUTA                                         10700002
         AIF   (&OP LT N'&SYSLIST).LOOP                                 10750002
.OUTA    ANOP                                                           10800002
         MEND                                                           10850002
         EJECT                                                          10900002
***  HEX MACRO       HEX MACRO       HEX MACRO       HEX MACRO      *** 10950002
         SPACE                                                          11000002
         MACRO                                                          11050002
         HEX                                                            11100002
.*                            THIS MACRO FACILITATES GENERATION OF THE  11150002
.*                                 TABLE ENTRIES SPECIFYING HEX TYPE    11200002
.*                                 CONVERSIONS.                         11250002
.*                            &SYSLIST(&OP,1) - NAME OF DATA ITEM TO BE 11300002
.*                                 CONVERTED                            11350002
.*                            &SYSLIST(&OP,2) - # OF SPACES TO SKIP ON  11400002
.*                                 MULTIPLE PRINT OR NBR OF SPACES TO   11450002
.*                                 BACK UP FROM COLUMN FOR START OF     11500002
.*                                 PRINTING. THE LETTER B PRECEEDS THE  11550002
.*                                 NUMBER (B8) IF THE LATTER OPTION IS  11600002
.*                                 DESIRED. OMISSION OF THIS OPERAND    11650002
.*                                 FORCES OPTION 2 WITH BACKUP SPACING  11700002
.*                                 EQUAL TO THE NUMBER OF BYTES SPECI-  11750002
.*                                 FIED BY THE NEXT OPERAND (TWICE THIS 11800002
.*                                 NUMBER IF SUFFIX IS EXPLICITLY OR    11850002
.*                                 IMPLICITLY B).                       11900002
.*                            &SYSLIST(&OP,3) - NUMBER OF BYTES TO      11950002
.*                                 PROCESS. THIS NUMBER IS SUFFIXED     12000002
.*                                 WITH AN L,R, OR B TO STIPULATE       12050002
.*                                 PRINTING OF THE LEFT HALF, RIGHT     12100002
.*                                 HALF, OR BOTH HALVES OF THE BYTE     12150002
.*                                 RESPECTIVELY. OMISSION OF THIS       12200002
.*                                 OPERAND DEFAULTS TO B WITH THE NUM-  12250002
.*                                 BER OF BYTES EQUAL TO THE ITEM LNGTH 12300002
.*                            A NEW ENTRY IS GENERATED ONLY WHEN NECES- 12350002
.*                                 SARY. THIS MACRO MUST BE THE FIRST   12400002
.*                                 MACRO INSTRUCTION ISSUED FOR THE     12450002
.*                                 SUBJECT LINE(S).                     12500002
         GBLA  &BITS(3000),&ITEMNBR,&SHIFT(3000),&NRENTS                12550002
         GBLC  &ITEM(3000),&DSECT                                       12600002
         GBLA  &INITIAL                                                 12650002
         GBLB  &DIAGTST,&DIAGSET,&DIAGLIN                               12700002
         LCLB  &B,&SUB                                                  12750002
         LCLA  &IBITS,&NDX,&ISHIFT,&K,&T,&CODE,&BYTESP,&OP              12800002
         LCLC  &S,&LETTER                                               12850002
         ACTR  500000                                                   12900002
         AIF   (&DIAGTST EQ 0).NOMSG                                    12950002
         AIF   (&INITIAL EQ 0).NOMSG                                    13000002
         AIF   (&DIAGLIN EQ 1).NOMSG                                    13050002
         MNOTE '**NO LINE ASSOCIATED WITH THIS DATA**'                  13100002
*****THE FOLLOWING GENERATED FOR TEST PURPOSES*****                     13150002
*        LINE                                                           13200002
         LINE                                                           13250002
.NOMSG   ANOP                                                           13300002
         AIF   (K'&SYSLIST(1) EQ K'&SYSLIST(1,1)).LOOP                  13350002
&SUB     SETB  1                                                        13400002
.LOOP    ANOP                                                           13450002
&OP      SETA  &OP+1                                                    13500002
.LOOP1   ANOP                                                           13550002
&NDX     SETA  &NDX+1                                                   13600002
         AIF   ('&ITEM(&NDX)' EQ '&SYSLIST(&OP,1)').FOUND               13650002
         AIF   (&NDX LT &ITEMNBR).LOOP1                                 13700002
         MNOTE '**LOG ITEM NOT DEFINED**'                               13750002
         MEXIT                                                          13800002
.FOUND   ANOP                                                           13850002
&ISHIFT  SETA  &SHIFT(&NDX)                                             13900002
&IBITS   SETA  &BITS(&NDX)                                              13950002
         AIF   (&ISHIFT EQ 0 OR &ISHIFT EQ 4).ALIGN                     14000002
.ERR     MNOTE '**DATA NOT ALLIGNED ON HEX OR BYTE BOUNDARY**'          14050002
         MEXIT                                                          14100002
.ALIGN   ANOP                                                           14150002
&CODE    SETA  1                                                        14200002
         AIF   (&SUB EQ 1).SUBA                                         14250002
&K       SETA  K'&SYSLIST(3)                                            14300002
         AGO   .SUBB                                                    14350002
.SUBA    ANOP                                                           14400002
&K       SETA  K'&SYSLIST(&OP,3)                                        14450002
.SUBB    ANOP                                                           14500002
         AIF   (&K EQ 1).ERR3                                           14550002
         AIF   (&IBITS-(&IBITS/4)*4 EQ 0).OK                            14600002
         MNOTE '**BIT LENGTH SPECIFICATION INCONSISTENT WITH CONTROL**' 14650002
         MEXIT                                                          14700002
.OK      AIF   (&SUB EQ 1).SUBC                                         14750002
         AIF   ('&SYSLIST(3)' EQ '').USEDEFN                            14800002
&LETTER  SETC  '&SYSLIST(3)'(&K,1)                                      14850002
&S       SETC  '&SYSLIST(3)'(1,&K-1)                                    14900002
         AGO   .SUBD                                                    14950002
.SUBC    ANOP                                                           15000002
         AIF   ('&SYSLIST(&OP,3)' EQ '').USEDEFN                        15050002
&LETTER  SETC  '&SYSLIST(&OP,3)'(&K,1)                                  15100002
&S       SETC  '&SYSLIST(&OP,3)'(1,&K-1)                                15150002
.SUBD    ANOP                                                           15200002
&BYTESP  SETA  &S                                                       15250002
         AIF   ('&LETTER' EQ 'B').BOTH                                  15300002
         AIF   ('&LETTER' EQ 'L').LEFT                                  15350002
         AIF   ('&LETTER' EQ 'R').RIGHT                                 15400002
.ERR3    MNOTE '**PARAMETER 3 INCOMPLETE-DSGEN DEFINITION USED**'       15450002
         AGO   .USEDEFN                                                 15500002
.RIGHT   ANOP                                                           15550002
&CODE    SETA  2                                                        15600002
         AGO   .L                                                       15650002
.LEFT    ANOP                                                           15700002
&CODE    SETA  1                                                        15750002
         AGO   .L                                                       15800002
.USEDEFN ANOP                                                           15850002
&BYTESP  SETA  &IBITS/8                                                 15900002
.BOTH    AIF   (&ISHIFT NE 0).ERR                                       15950002
&CODE    SETA  3                                                        16000002
&T       SETA  &BYTESP*2-1                                              16050002
&S       SETC  '&T'                                                     16100002
.OK2     AIF   (&ISHIFT EQ 0).L                                         16150002
&CODE    SETA  2                                                        16200002
.L       ANOP                                                           16250002
&B       SETB  1                                                        16300002
         AIF   (&SUB EQ 1).SUBE                                         16350002
         AIF   ('&SYSLIST(2)' EQ '').BACKUP                             16400002
&K       SETA  K'&SYSLIST(2)                                            16450002
&B       SETB  ('&SYSLIST(2)'(1,1) EQ 'B')                              16500002
&S       SETC  '&SYSLIST(2)'(&B+1,&K-&B)                                16550002
         AGO   .SUBF                                                    16600002
.SUBE    ANOP                                                           16650002
         AIF   ('&SYSLIST(&OP,2)' EQ '').BACKUP                         16700002
&K       SETA  K'&SYSLIST(&OP,2)                                        16750002
&B       SETB  ('&SYSLIST(&OP,2)'(1,1) EQ 'B')                          16800002
&S       SETC  '&SYSLIST(&OP,2)'(&B+1,&K-&B)                            16850002
.SUBF    ANOP                                                           16900002
.BACKUP  ANOP                                                           16950002
&NRENTS  SETA  &NRENTS+1                                                17000002
         AIF   (&BYTESP GT 0 AND &BYTESP LT 16).SUB0                    17050002
         MNOTE '**NO. OF BYTES OUTSIDE RANGE OF 1-15**'                 17100002
         MEXIT                                                          17150002
.SUB0    AIF   (&SUB EQ 1).SUBG                                         17200002
         DC    AL.12(&SYSLIST(1)-&DSECT),XL.4'A'                        17250002
         AGO   .SUBH                                                    17300002
.SUBG    ANOP                                                           17350002
         DC    AL.12(&SYSLIST(&OP,1)-&DSECT),XL.4'A'                    17400002
.SUBH    ANOP                                                           17450002
         DC    BL.1'&B',FL.7'&S',AL.4(&BYTESP),FL.4'&CODE'              17500002
.OUT     ANOP                                                           17550002
&NDX     SETA  0                                                        17600002
         AIF   (&SUB EQ 0).OUTA                                         17650002
         AIF   (&OP LT N'&SYSLIST).LOOP                                 17700002
.OUTA    ANOP                                                           17750002
         MEND                                                           17800002
         EJECT                                                          17850002
***  LINE MACRO      LINE MACRO      LINE MACRO      LINE MACRO     *** 17900002
         SPACE                                                          17950002
         MACRO                                                          18000002
&NAME    LINE  &DATA,&LABEL,&SKIP=                                      18050002
.*                            THIS MACRO ESTABLISHES THE MARGINS OR     18100002
.*                                 COLUMN SETTINGS FOR EACH LINE. IT    18150002
.*                                 GENERATES NECESSARY CARRIAGE CONTROL 18200002
.*                                 ENTRIES. LASTLY IT DETERMINES THE    18250002
.*                                 NUMBER OF ENTRIES ASSOCIATED WITH    18300002
.*                                 THE PREVIOUS LINE AND STORES THAT #  18350002
.*                                 INTO THE APPROPRIATE BYTE.           18400002
.*                            &DATA(1) - CHARACTER POSITION TO BEGIN    18450002
.*                                 DATA.                                18500002