         TITLE 'IFCEXXX9 - EDIT TABLE - LINKNAME=IFCE2250, ALIASES=IFCEC00070002
               2260,IFCE2280,IFCE2282,IFCE3505,IFCE3525'                00140002
         SPACE 2                                                        00210002
*  LINE MACRO     LINE MACRO     LINE MACRO     LINE MACRO            * 00280002
         MACRO                                                          00350002
&NAME    LINE  &DATA,&LABEL,&SKIP=                                      00420002
.*                            THIS MACRO ESTABLISHES THE MARGINS OR     00490002
.*                                 COLUMN SETTINGS FOR EACH LINE. IT    00560002
.*                                 GENERATES NECESSARY CARRIAGE CONTROL 00630002
.*                                 ENTRIES. LASTLY IT DETERMINES THE    00700002
.*                                 NUMBER OF ENTRIES ASSOCIATED WITH    00770002
.*                                 THE PREVIOUS LINE AND STORES THAT #  00840002
.*                                 INTO THE APPROPRIATE BYTE.           00910002
.*                                 &DATA(1) - CHARACTER POSITION TO     00980002
.*                                 BEGIN DATA.                          01050002
.*                                                                      01120002
.*                                 &DATA(2) - # OF SPACES BETWEEN       01190002
.*                                 SUCCESSIVE DATA COLUMN STARTING      01260002
.*                                 CHARACTERS.                          01330002
.*                                                                      01400002
.*                                 &LABEL(1) - CHARACTER POSITION       01470002
.*                                 TO BEGIN LABELS.                     01540002
.*                                                                      01610002
.*                                 &LABEL(2) - # OF SPACES BETWEEN      01680002
.*                                 LINE'S LABEL STARTING CHARACTERS.    01750002
.*                                                                      01820002
.*                                 &SKIP= - # OF LINES TO ADVANCE       01890002
.*                                 CARRIAGE TO BEGIN NEXT PRINTED LINE. 01960002
.*                                                                      02030002
.*                                 NEW ENTRIES ARE GENERATED ONLY WHEN  02100002
.*                                 NECESSARY. OMISSION OF ITEMS MEANS   02170002
.*                                 THEY HAVE NOT CHANGED SINCE PREVIOUS 02240002
.*                                 SETTINGS. A LINE MACRO IS REQUIRED   02310002
.*                                 FOR EACH PRINTED LINE. IF NO SETTING 02380002
.*                                 CHANGES ARE REQUIRED ALL OPERANDS    02450002
.*                                 ARE OMITTED IN WHICH CASE ONLY THE   02520002
.*                                 # OF ENTRIES FOR THE PREVIOUS LINE   02590002
.*                                 FIRST MACRO INSTRUCTION ISSUED FOR   02660002
.*                                 THE SUBJECT LINE.                    02730002
         GBLA  &DB,&DT,&LB,&LT,&NRENTS                                  02800002
         GBLA  &LASTCC,&INITIAL                                         02870002
         GBLC  &NRENTSX                                                 02940002
         GBLC  &CARRCON                                                 03010002
         GBLB  &TEST                                                    03080002
         LCLA  &S                                                       03150002
&NAME    DS    0C                                                       03220002
         AIF   (&INITIAL EQ 0).FIRSTLN                                  03290002
         LINEND                                                         03360002
         AGO   .NTFIRST                                                 03430002
.FIRSTLN ANOP                                                           03500002
&NRENTSX SETC  'N&SYSNDX'                                               03570002
&INITIAL SETA  1                                                        03640002
&LASTCC  SETA  1                                                        03710002
N&SYSNDX EQU   *                                                        03780002
.NTFIRST ANOP                                                           03850002
         DC    AL1(0)                                                   03920002
         AIF   ('&DATA(1)' EQ '').CKDTABS                               03990002
         AIF   ('&DATA'(1,1) NE '(').SLABEL                             04060002
         AIF   (&DATA(1) EQ &DB).CKDTABS                                04130002
&DB      SETA  &DATA(1)                                                 04200002
         AGO   .AA                                                      04270002
.CKDTABS AIF   ('&DATA(2)' EQ '').NCDATA                                04340002
         AIF   (&DATA(2) EQ &DT).NCDATA                                 04410002
         AGO   .CC                                                      04480002
.AA      AIF   ('&DATA(2)' EQ '').BB                                    04550002
         AIF   (&DATA(2) EQ &DT).BB                                     04620002
.CC      ANOP                                                           04690002
&DT      SETA  &DATA(2)                                                 04760002
.BB      DC    XL2'FFFE'                                                04830002
         DC    FL1'&DB'                                                 04900002
         DC    FL1'&DT'                                                 04970002
&NRENTS  SETA  &NRENTS+1                                                05040002
.NCDATA  ANOP                                                           05110002
         AIF   ('&LABEL(1)' EQ '').CKLTABS                              05180002
         AIF   ('&LABEL'(1,1) NE '(').SLABEL                            05250002
         AIF   (&LABEL(1) EQ &LB).CKLTABS                               05320002
&LB      SETA  &LABEL(1)                                                05390002
         AGO   .AAA                                                     05460002
.CKLTABS AIF   ('&LABEL(2)' EQ '').NCLABEL                              05530002
         AIF   (&LABEL(2) EQ &LT).NCLABEL                               05600002
         AGO   .CCC                                                     05670002
.AAA     AIF   ('&LABEL(2)' EQ '').BBB                                  05740002
         AIF   (&LABEL(2) EQ &LT).BBB                                   05810002
.CCC     ANOP                                                           05880002
&LT      SETA  &LABEL(2)                                                05950002
.BBB     DC    XL2'FFFF'                                                06020002
         DC    FL1'&LB'                                                 06090002
         DC    FL1'&LT'                                                 06160002
&NRENTS  SETA  &NRENTS+1                                                06230002
.NCLABEL ANOP                                                           06300002
         AIF   ('&SKIP' EQ 'E').EJECT                                   06370002
         AIF   ('&SKIP' EQ '').TESTOFF                                  06440002
.CONT    ANOP                                                           06510002
         AIF   (&TEST EQ 0).AB                                          06580002
         AIF   (&SKIP EQ &LASTCC).TESTOFF                               06650002
&S       SETA  &SKIP                                                    06720002
         ORG   &CARRCON+3                                               06790002
         DC    AL.3(0),AL.2(&S),AL.3(1)                                 06860002
         ORG                                                            06930002
&LASTCC  SETA  &S                                                       07000002
.SLABEL  ANOP                                                           07070002
.TESTOFF ANOP                                                           07140002
&TEST    SETB  0                                                        07210002
         AGO   .DD                                                      07280002
.EJECT   DC    XL2'FFFB'                                                07350002
&NRENTS  SETA  &NRENTS+1                                                07420002
         DC    X'8B'              SKIP TO CHANNEL 1                     07490002
         DC    AL.3(0),AL.2(&LASTCC),AL.3(1)                            07560002
&TEST    SETB  1                                                        07630002
         AGO   .DD                                                      07700002
.AB      AIF   (&SKIP EQ &LASTCC).NOCHANG                               07770002
A&SYSNDX DC    XL2'FFFB'                                                07840002
         DC    AL.3(0),AL.2(&SKIP),AL.3(1)                              07910002
         DC    AL.3(0),AL.2(&SKIP),AL.3(1)                              07980002
&LASTCC  SETA  &SKIP                                                    08050002
&TEST    SETB  1                                                        08120002
&CARRCON SETC  'A&SYSNDX'                                               08190002
&NRENTS  SETA  &NRENTS+1                                                08260002
.DD      ANOP                                                           08330002
.NOCHANG ANOP                                                           08400002
         MEND                                                           08470002
         EJECT                                                          08540002
         SPACE 2                                                        08610002
*  ROUTINE MACRO     ROUTINE MACRO     ROUTINE MACRO     ROUTINE MACRO* 08680002
         MACRO                                                          08750002
&NAME    ROUTINE &LOGITEM,&RNAME                                        08820002
         GBLC  &DSECT,&CSECT                                            08890002
         GBLC  &ITEM(1000)                                              08960002
         GBLA  &SHIFT(1000),&ITEMNBR                                    09030002
         GBLA  &NRENTS                                                  09100002
         LCLA  &ISHIFT,&NDX                                             09170002
.LOOP    ANOP                                                           09240002
&NDX     SETA  &NDX+1                                                   09310002
         AIF   ('&ITEM(&NDX)' EQ '&LOGITEM').FOUND                      09380002
         AIF   (&NDX LT &ITEMNBR).LOOP                                  09450002
         MNOTE *,'LOG ITEM NOT DEFINED'                                 09520002
         MEXIT                                                          09590002
.FOUND   ANOP                                                           09660002
&ISHIFT  SETA  &SHIFT(&NDX)                                             09730002
&NAME    DC    AL.12(&LOGITEM-&DSECT),XL.4'D'                           09800002
         DC    AL.4(&ISHIFT),AL.12(&RNAME-&CSECT)                       09870002
&NRENTS  SETA  &NRENTS+1                                                09940002
         MEND                                                           10010002
*  DSGEN MACRO     DSGEN MACRO     DSGEN MACRO     DSGEN MACRO        * 10080002
         SPACE 2                                                        10150002
         MACRO                                                          10220002
&NAME    DSGEN &X1,&X2,&X3,&X4,&X5,&X6,&X7,&X8,&X9,&X10,&X11,&X12,&X13,X10290002
               &X14,&X15,&X16,&X17,&X18,&X19,&X20,&X21,&X22,&X23,&X24, X10360002
               &X25,&X26,&X27,&X28,&X29,&X30,&X31,&X32                  10430002
.*                            THIS MACRO GENERATES ONE DSECT WORD       10500002
.*                                 FORMATTED FOR THE SUBJECT LOG RECORD 10570002
.*                                 EACH OPERAND HAS TWO SUB LISTS. THE  10640002
.*                                 FIRST IS THE NAME OF THE LOG ITEM    10710002
.*                                 WHILE THE SECOND IS THE # OF BITS TO 10780002
.*                                 ALLOCATE FOR THIS ITEM. ITEMS MUST   10850002
.*                                 BE DEFINED CONTIGUOUSLY WITHOUT GAPS 10920002
.*                                 UNUSED BIT GROUPS MUST BE GIVEN      10990002
.*                                 DUMMY NAMES. THE NAMES PROVIDED FOR  11060002
.*                                 THE LOG ITEMS MAY THEN BE USED IN    11130002
.*                                 THE CONVERSION MACRO INSTRUCTIONS.   11200002
         GBLC &ITEM(1000)                                               11270002
         GBLA &ITEMNBR,&BITS(1000),&SHIFT(1000)                         11340002
         LCLC  &SYMBOL                                                  11410002
         LCLA  &OP,&COUNT,&BYTE                                         11480002
.LOOP    ANOP                                                           11550002
&OP      SETA  &OP+1                                                    11620002
&ITEMNBR SETA  &ITEMNBR+1                                               11690002
&SYMBOL  SETC  '&SYSLIST(&OP,1)'                                        11760002
         AIF   ('&SYSLIST(&OP,2)' NE '').OK1                            11830002
         MNOTE *,'NULL BIT COUNT FIELD'                                 11900002
         MEXIT                                                          11970002
.OK1     ANOP                                                           12040002
         AIF   ('&SYMBOL' NE '').OK                                     12110002
         MNOTE 'LOG ITEM SYMBOL NOT PROVIDED'                           12180002
         AGO   .CNT                                                     12250002
.OK      ANOP                                                           12320002
         AIF   ('&SYMBOL'(1,1) EQ '''').CNT                *TEMP*       12390002
&SYMBOL  EQU   *+&BYTE                                                  12460002
&ITEM(&ITEMNBR)  SETC '&SYSLIST(&OP,1)'                                 12530002
&BITS(&ITEMNBR) SETA &SYSLIST(&OP,2)                                    12600002
&SHIFT(&ITEMNBR) SETA &COUNT-&BYTE*8                                    12670002
.CNT     ANOP                                                           12740002
&COUNT   SETA  &COUNT+&SYSLIST(&OP,2)                                   12810002
&BYTE    SETA  &COUNT/8                                                 12880002
         AIF (&OP LT N'&SYSLIST).LOOP                                   12950002
         AIF   (&COUNT NE 32).NOT32                                     13020002
&NAME    DS    4C                                                       13090002
         MEXIT                                                          13160002
.NOT32   AIF   (&COUNT NE 64).ERR                                       13230002
&NAME    DS    8C                                                       13300002
         MEXIT                                                          13370002
.ERR     MNOTE '**BIT COUNT FIELDS DO NOT TOTAL 32 OR 64**'             13440002
         MEND                                                           13510002
         MACRO                                                          13580002
         LINEND                                                         13650002
.*                            THIS MACRO IS USED ONLY BY THE LINE       13720002
.*                                 MACRO TO SET THE NUMBER OF ENTRIES   13790002
.*                                 ASSOCIATED WITH EACH LINE.           13860002
         GBLA  &NRENTS                                                  13930002
         GBLC &NRENTSX                                                  14000002
         ORG   &NRENTSX                                                 14070002
         DC    FL1'&NRENTS'                                             14140002
         ORG                                                            14210002
&NRENTS  SETA  0                                                        14280002
B&SYSNDX EQU   *                                                        14350002
&NRENTSX SETC  'B&SYSNDX'                                               14420002
         MEND                                                           14490002
         SPACE 2                                                        14560002
         EJECT                                                          14630002
*  LABEL MACRO     LABEL MACRO     LABEL MACRO     LABEL MACRO        * 14700002
         SPACE 2                                                        14770002
         MACRO                                                          14840002
&NAME    LABEL &LABEL1,&LABEL2,&LABEL3,&LABEL4,&LABEL5,&LABEL6,        C14910002
               &LABEL7,&LABEL8                                          14980002
.*                            THIS MACRO ALLOWS UP TO ACHT LABELS TO    15050002
.*                                 BE SPECIFIED FOR A GIVEN LINE. THE   15120002
.*                                 LABELS SHOULD BE ENCLOSED IN QUOTA-  15190002
.*                                 TION MARKS. THE COLUMN AND LINE END  15260002
.*                                 CONTROLS WILL BE INSERTED BY THE     15330002
.*                                 MACRO. OMITTED OPERANDS MEAN NO      15400002
.*                                 LABEL REQUIRED FOR RESPECTIVE        15470002
.*                                 COLUMN. THIS MACRO WILL ALSO ALERT   15540002
.*                                 THE PROGRAMMER TO EXACTLY WHERE THE  15610002
.*                                 TABLE MUST BE BROKEN IF NECESSARY    15680002
.*                                 TO AVOID EXCEEDING THE MAXIMUM LIMIT 15750002
         GBLC &LABELS(2000)                                             15820002
         GBLC  &LBL(100)                                                15890002
         GBLA  &LBLCTR(100)                                             15960002
         GBLA  &LABELNR                                                 16030002
         GBLA  &NRENTS,&LPTR                                            16100002
         LCLC  &MARGIN,&TACK                                            16170002
         LCLC  &TEXT                                                    16240002
         LCLA  &OP,&K,&START,&NRCHAR,&REMAIN                            16310002
&MARGIN  SETC  '*'                                                      16380002
         AIF   ('&NAME' EQ '').LOOPOUT                                  16450002
&LPTR    SETA  &LPTR+1                                                  16520002
&LBL(&LPTR) SETC '&NAME'                                                16590002
&LBLCTR(&LPTR) SETA &LABELNR+1                                          16660002
.LOOPOUT ANOP                                                           16730002
&OP      SETA  &OP+1                                                    16800002
&K       SETA  K'&SYSLIST(&OP)                                          16870002
         AIF (&K GE 2).NORM                                             16940002
&K       SETA  2                                                        17010002
.NORM    ANOP                                                           17080002
&START   SETA  2                                                        17150002
         AIF (&OP LT N'&SYSLIST).NOTLAST                                17220002
&MARGIN  SETC  '$'                                                      17290002
.NOTLAST ANOP                                                           17360002
&NRCHAR  SETA  8                                                        17430002
&TACK    SETC  ''                                                       17500002
.LOOPIN  ANOP                                                           17570002
&REMAIN  SETA  &K-&START                                                17640002
         AIF (&REMAIN GE 8).MORE                                        17710002
&TACK    SETC  '&MARGIN'                                                17780002
&NRCHAR  SETA  &REMAIN                                                  17850002
.MORE    ANOP                                                           17920002
&TEXT    SETC  ''                                                       17990002
         AIF (&REMAIN EQ 0).ENDTEXT                                     18060002
&TEXT    SETC  '&SYSLIST(&OP)'(&START,&NRCHAR)                          18130002
.ENDTEXT ANOP                                                           18200002
&LABELNR SETA  &LABELNR+1                                               18270002
&LABELS(&LABELNR) SETC '&TEXT'.'&TACK'                                  18340002
&START   SETA  &START+8                                                 18410002
         AIF ('&TACK' EQ '').LOOPIN                                     18480002
         AIF ('&TACK' EQ '*').LOOPOUT                                   18550002
         MEND                                                           18620002
         SPACE 2                                                        18690002
         MACRO                                                          18760002
         LSTART                                                         18830002
.*                            THIS MACRO IS ISSUED WHEN THE LABEL AREA  18900002
.*                                 OF THE TABLE IS TO BEGIN.            18970002
         GBLC &LABELS(2000)                                             19040002
         GBLA  &LABELNR                                                 19110002
         GBLC  &LBL(100)                                                19180002
         GBLA  &LBLCTR(100)                                             19250002
         LCLA  &NDX,&CTR                                                19320002
         LINEND                                                         19390002
&CTR     SETA  1                                                        19460002
.LOOP    ANOP                                                           19530002
&NDX     SETA  &NDX+1                                                   19600002
         AIF   (&LBLCTR(&CTR) NE &NDX).NOLBL                            19670002
&LBL(&CTR) DC  C'&LABELS(&NDX)'                                         19740002
&CTR     SETA  &CTR+1                                                   19810002
         AGO   .LOOPCTL                                                 19880002
.NOLBL   ANOP                                                           19950002
         DC    C'&LABELS(&NDX)'                                         20020002
.LOOPCTL AIF   (&NDX LT &LABELNR).LOOP                                  20090002
         MEND                                                           20160002
         SPACE 2                                                        20230002
*  BIN MACRO     BIN MACRO     BIN MACRO     BIN MACRO     BIN MACRO  * 20300002
         SPACE 2                                                        20370002
         MACRO                                                          20440002
         BIN   &LOGITEM,&SKIP$OR                                        20510002
.*                                 &LOGITEM - NAME OF ITEM IN LOG       20580002
.*                                      RECORD DSECT                    20650002
.*                                 &SKIP$OR - NBR OF SPACES TO SKIP ON  20720002
.*                                 MULTIPLE PRINT OR NBR OF SPACES      20790002
.*                                      TO BACK UP FROM COLUMN FOR      20860002
.*                                      START OF PRINTING. THE LETTER   20930002
.*                                      B PRECEEDS THE NUMBER (B5) IF   21000002
.*                                      THE LATTER IS DESIRED. OMISSION 21070002
.*                                      OF THIS OPERAND FORCES OPTION 2 21140002
.*                                      WITH BACKUP SPACING EQUAL TO    21210002
.*                                 THE NUMBER OF BITS IN THE ITEM       21280002
.*                                 DEFINITION (VIA MACRO 'DSGEN').      21350002
.*                            A LIMIT OF 15 BITS IS IMPOSED FOR THE     21420002
.*                                 TOTAL NUMBER OF BITS TO PRINT.       21490002
         GBLC &ITEM(1000)                                               21560002
         GBLA &ITEMNBR,&BITS(1000),&SHIFT(1000),&NRENTS                 21630002
         GBLC  &DSECT                                                   21700002
         LCLB  &B                                                       21770002
         LCLA  &IBITS,&NDX,&ISHIFT,&K                                   21840002
         LCLA  &TEMP,&T                                                 21910002
         LCLC  &S                                                       21980002
.LOOP    ANOP                                                           22050002
&NDX     SETA  &NDX+1                                                   22120002
         AIF   ('&ITEM(&NDX)' EQ '&LOGITEM').FOUND                      22190002
         AIF   (&NDX LT &ITEMNBR).LOOP                                  22260002
         MNOTE *,'YOU BLEW IT'                                          22330002
         ROUTINE DUM,SKIPPER                                            22400002
         MEXIT                                                          22470002
.FOUND   ANOP                                                           22540002
&ISHIFT  SETA  &SHIFT(&NDX)                                             22610002
&IBITS   SETA  &BITS(&NDX)                                              22680002
&T       SETA  &IBITS-1                                                 22750002
&B       SETB  0                                                        22820002
         AIF   ('&SKIP$OR' EQ '').BACKUP                                22890002
&K       SETA  K'&SKIP$OR                                               22960002
&B       SETB  ('&SKIP$OR'(1,1) EQ 'B')                                 23030002
&S       SETC  '&SKIP$OR'(&B+1,&K-&B)                                   23100002
&T       SETA  &S                                                       23170002
.BACKUP  ANOP                                                           23240002
&NRENTS  SETA  &NRENTS+1                                                23310002
&TEMP    SETA  &ISHIFT                                                  23380002
A&SYSNDX DC    AL.12(&LOGITEM-&DSECT),XL.4'&TEMP'                       23450002
         AIF (&IBITS EQ 1 AND &B EQ 0).OUT                              23520002
         ORG   A&SYSNDX                                                 23590002
&B       SETB  1                                                        23660002
         DC    AL.12(&LOGITEM-&DSECT),XL.4'C'                           23730002
         DC    BL.1'&B',AL.7(&T),AL.4(&IBITS),FL.4'&ISHIFT'             23800002
.OUT     ANOP                                                           23870002
         MEND                                                           23940002
         EJECT                                                          24010002
*  HEX MACRO     HEX MACRO     HEX MACRO    HEXN MACRO     HEX MACRO  * 24080002
         SPACE 2                                                        24150002
         MACRO                                                          24220002
         HEX   &LOGITEM,&SKIP$OR,&BYTES                                 24290002
.*                            THIS MACRO FACILITATES GENERATION OF THE  24360002
.*                                 TABLE ENTRIES SPECIFYING HEX TYPE    24430002
.*                                 CONVERSIONS.                         24500002
.*                            &LOGITEM - NAME OF DATA ITEM TO BE        24570002
.*                                 CONVERTED                            24640002
.*                            &SKIP$OR - NUMBER OF SPACES TO SKIP ON    24710002
.*                                 MULTIPLE PRINT OR NBR OF SPACES TO   24780002
.*                                 BACK UP FROM COLUMN FOR START OF     24850002
.*                                 PRINTING. THE LETTER B PRECEEDS THE  24920002
.*                                 NUMBER (B8) IF THE LATTER OPTION IS  24990002
.*                                 DESIRED. OMISSION OF THIS OPERAND    25060002
.*                                 FORCES OPTION 2 WITH BACKUP SPACING  25130002
.*                                 EQUAL TO THE NUMBER OF BYTES SPECI-  25200002
.*                                 FIED BY THE NEXT OPERAND (TWICE THIS 25270002
.*                                 NUMBER IF SUFFIX IS EXPLICITLY OR    25340002
.*                                 IMPLICITLY B).                       25410002
.*                            &BYTES - NUMBER OF TOTAL INPUT BYTES TO   25480002
.*                                 PROCESS. THIS NUMBER IS SUFFIXED     25550002
.*                                 WITH AN L,R, OR B TO STIPULATE       25620002
.*                                 PRINTING OF THE LEFT HALF, RIGHT     25690002
.*                                 HALF, OR BOTH HALVES OF THE BYTE     25760002
.*                                 RESPECTIVELY. OMISSION OF THIS       25830002
.*                                 OPERAND DEFAULTS TO B WITH THE NUM-  25900002