         TITLE 'IFCET006  3670 REMOTE BUFFER LOG EDIT'                  00050002
         SPACE 2                                                        00100002
*  LINE MACRO     LINE MACRO     LINE MACRO     LINE MACRO            * 00150002
         MACRO                                                          00200002
&NAME    LINE  &DATA,&LABEL,&SKIP=                                      00250002
.*                            THIS MACRO ESTABLISHES THE MARGINS OR     00300002
.*                                 COLUMN SETTINGS FOR EACH LINE. IT    00350002
.*                                 GENERATES NECESSARY CARRIAGE CONTROL 00400002
.*                                 ENTRIES. LASTLY IT DETERMINES THE    00450002
.*                                 NUMBER OF ENTRIES ASSOCIATED WITH    00500002
.*                                 THE PREVIOUS LINE AND STORES THAT #  00550002
.*                                 INTO THE APPROPRIATE BYTE.           00600002
.*                                 &DATA(1) - CHARACTER POSITION TO     00650002
.*                                 BEGIN DATA.                          00700002
.*                                                                      00750002
.*                                 &DATA(2) - # OF SPACES BETWEEN       00800002
.*                                 SUCCESSIVE DATA COLUMN STARTING      00850002
.*                                 CHARACTERS.                          00900002
.*                                                                      00950002
.*                                 &LABEL(1) - CHARACTER POSITION       01000002
.*                                 TO BEGIN LABELS.                     01050002
.*                                                                      01100002
.*                                 &LABEL(2) - # OF SPACES BETWEEN      01150002
.*                                 LINE'S LABEL STARTING CHARACTERS.    01200002
.*                                                                      01250002
.*                                 &SKIP= - # OF LINES TO ADVANCE       01300002
.*                                 CARRIAGE TO BEGIN NEXT PRINTED LINE. 01350002
.*                                                                      01400002
.*                                 NEW ENTRIES ARE GENERATED ONLY WHEN  01450002
.*                                 NECESSARY. OMISSION OF ITEMS MEANS   01500002
.*                                 THEY HAVE NOT CHANGED SINCE PREVIOUS 01550002
.*                                 SETTINGS. A LINE MACRO IS REQUIRED   01600002
.*                                 FOR EACH PRINTED LINE. IF NO SETTING 01650002
.*                                 CHANGES ARE REQUIRED ALL OPERANDS    01700002
.*                                 ARE OMITTED IN WHICH CASE ONLY THE   01750002
.*                                 # OF ENTRIES FOR THE PREVIOUS LINE   01800002
.*                                 FIRST MACRO INSTRUCTION ISSUED FOR   01850002
.*                                 THE SUBJECT LINE.                    01900002
         GBLA  &DB,&DT,&LB,&LT,&NRENTS                                  01950002
         GBLA  &LASTCC,&INITIAL                                         02000002
         GBLC  &NRENTSX                                                 02050002
         GBLC  &CARRCON                                                 02100002
         GBLB  &TEST                                                    02150002
         LCLA  &S                                                       02200002
&NAME    DS    0C                                                       02250002
         AIF   (&INITIAL EQ 0).FIRSTLN                                  02300002
         LINEND                                                         02350002
         AGO   .NTFIRST                                                 02400002
.FIRSTLN ANOP                                                           02450002
&NRENTSX SETC  'N&SYSNDX'                                               02500002
&INITIAL SETA  1                                                        02550002
&LASTCC  SETA  1                                                        02600002
N&SYSNDX EQU   *                                                        02650002
.NTFIRST ANOP                                                           02700002
         DC    AL1(0)                                                   02750002
         AIF   ('&DATA(1)' EQ '').CKDTABS                               02800002
         AIF   ('&DATA'(1,1) NE '(').SLABEL                             02850002
         AIF   (&DATA(1) EQ &DB).CKDTABS                                02900002
&DB      SETA  &DATA(1)                                                 02950002
         AGO   .AA                                                      03000002
.CKDTABS AIF   ('&DATA(2)' EQ '').NCDATA                                03050002
         AIF   (&DATA(2) EQ &DT).NCDATA                                 03100002
         AGO   .CC                                                      03150002
.AA      AIF   ('&DATA(2)' EQ '').BB                                    03200002
         AIF   (&DATA(2) EQ &DT).BB                                     03250002
.CC      ANOP                                                           03300002
&DT      SETA  &DATA(2)                                                 03350002
.BB      DC    XL2'FFFE'                                                03400002
         DC    FL1'&DB'                                                 03450002
         DC    FL1'&DT'                                                 03500002
&NRENTS  SETA  &NRENTS+1                                                03550002
.NCDATA  ANOP                                                           03600002
         AIF   ('&LABEL(1)' EQ '').CKLTABS                              03650002
         AIF   ('&LABEL'(1,1) NE '(').SLABEL                            03700002
         AIF   (&LABEL(1) EQ &LB).CKLTABS                               03750002
&LB      SETA  &LABEL(1)                                                03800002
         AGO   .AAA                                                     03850002
.CKLTABS AIF   ('&LABEL(2)' EQ '').NCLABEL                              03900002
         AIF   (&LABEL(2) EQ &LT).NCLABEL                               03950002
         AGO   .CCC                                                     04000002
.AAA     AIF   ('&LABEL(2)' EQ '').BBB                                  04050002
         AIF   (&LABEL(2) EQ &LT).BBB                                   04100002
.CCC     ANOP                                                           04150002
&LT      SETA  &LABEL(2)                                                04200002
.BBB     DC    XL2'FFFF'                                                04250002
         DC    FL1'&LB'                                                 04300002
         DC    FL1'&LT'                                                 04350002
&NRENTS  SETA  &NRENTS+1                                                04400002
.NCLABEL ANOP                                                           04450002
         AIF   ('&SKIP' EQ 'E').EJECT                                   04500002
         AIF   ('&SKIP' EQ '').TESTOFF                                  04550002
.CONT    ANOP                                                           04600002
         AIF   (&TEST EQ 0).AB                                          04650002
         AIF   (&SKIP EQ &LASTCC).TESTOFF                               04700002
&S       SETA  &SKIP                                                    04750002
         ORG   &CARRCON+3                                               04800002
         DC    AL.3(0),AL.2(&S),AL.3(1)                                 04850002
         ORG                                                            04900002
&LASTCC  SETA  &S                                                       04950002
.SLABEL  ANOP                                                           05000002
.TESTOFF ANOP                                                           05050002
&TEST    SETB  0                                                        05100002
         AGO   .DD                                                      05150002
.EJECT   DC    XL2'FFFB'                                                05200002
&NRENTS  SETA  &NRENTS+1                                                05250002
         DC    X'8B'              SKIP TO CHANNEL 1                     05300002
         DC    AL.3(0),AL.2(&LASTCC),AL.3(1)                            05350002
&TEST    SETB  1                                                        05400002
         AGO   .DD                                                      05450002
.AB      AIF   (&SKIP EQ &LASTCC).NOCHANG                               05500002
A&SYSNDX DC    XL2'FFFB'                                                05550002
         DC    AL.3(0),AL.2(&SKIP),AL.3(1)                              05600002
         DC    AL.3(0),AL.2(&SKIP),AL.3(1)                              05650002
&LASTCC  SETA  &SKIP                                                    05700002
&TEST    SETB  1                                                        05750002
&CARRCON SETC  'A&SYSNDX'                                               05800002
&NRENTS  SETA  &NRENTS+1                                                05850002
.DD      ANOP                                                           05900002
.NOCHANG ANOP                                                           05950002
         MEND                                                           06000002
         EJECT                                                          06050002
         SPACE 2                                                        06100002
*  ROUTINE MACRO     ROUTINE MACRO     ROUTINE MACRO     ROUTINE MACRO* 06150002
         MACRO                                                          06200002
&NAME    ROUTINE &LOGITEM,&RNAME                                        06250002
         GBLC  &DSECT,&CSECT                                            06300002
         GBLC  &ITEM(1000)                                              06350002
         GBLA  &SHIFT(1000),&ITEMNBR                                    06400002
         GBLA  &NRENTS                                                  06450002
         LCLA  &ISHIFT,&NDX                                             06500002
.LOOP    ANOP                                                           06550002
&NDX     SETA  &NDX+1                                                   06600002
         AIF   ('&ITEM(&NDX)' EQ '&LOGITEM').FOUND                      06650002
         AIF   (&NDX LT &ITEMNBR).LOOP                                  06700002
         MNOTE *,'LOG ITEM NOT DEFINED'                                 06750002
         MEXIT                                                          06800002
.FOUND   ANOP                                                           06850002
&ISHIFT  SETA  &SHIFT(&NDX)                                             06900002
&NAME    DC    AL.12(&LOGITEM-&DSECT),XL.4'D'                           06950002
         DC    AL.4(&ISHIFT),AL.12(&RNAME-&CSECT)                       07000002
&NRENTS  SETA  &NRENTS+1                                                07050002
         MEND                                                           07100002
*  DSGEN MACRO     DSGEN MACRO     DSGEN MACRO     DSGEN MACRO        * 07150002
         SPACE 2                                                        07200002
         MACRO                                                          07250002
&NAME    DSGEN &X1,&X2,&X3,&X4,&X5,&X6,&X7,&X8,&X9,&X10,&X11,&X12,&X13,X07300002
               &X14,&X15,&X16,&X17,&X18,&X19,&X20,&X21,&X22,&X23,&X24, X07350002
               &X25,&X26,&X27,&X28,&X29,&X30,&X31,&X32                  07400002
.*                            THIS MACRO GENERATES ONE DSECT WORD       07450002
.*                                 FORMATTED FOR THE SUBJECT LOG RECORD 07500002
.*                                 EACH OPERAND HAS TWO SUB LISTS. THE  07550002
.*                                 FIRST IS THE NAME OF THE LOG ITEM    07600002
.*                                 WHILE THE SECOND IS THE # OF BITS TO 07650002
.*                                 ALLOCATE FOR THIS ITEM. ITEMS MUST   07700002
.*                                 BE DEFINED CONTIGUOUSLY WITHOUT GAPS 07750002
.*                                 UNUSED BIT GROUPS MUST BE GIVEN      07800002
.*                                 DUMMY NAMES. THE NAMES PROVIDED FOR  07850002
.*                                 THE LOG ITEMS MAY THEN BE USED IN    07900002
.*                                 THE CONVERSION MACRO INSTRUCTIONS.   07950002
         GBLC &ITEM(1000)                                               08000002
         GBLA &ITEMNBR,&BITS(1000),&SHIFT(1000)                         08050002
         LCLC  &SYMBOL                                                  08100002
         LCLA  &OP,&COUNT,&BYTE                                         08150002
.LOOP    ANOP                                                           08200002
&OP      SETA  &OP+1                                                    08250002
&ITEMNBR SETA  &ITEMNBR+1                                               08300002
&SYMBOL  SETC  '&SYSLIST(&OP,1)'                                        08350002
         AIF   ('&SYSLIST(&OP,2)' NE '').OK1                            08400002
         MNOTE *,'NULL BIT COUNT FIELD'                                 08450002
         MEXIT                                                          08500002
.OK1     ANOP                                                           08550002
         AIF   ('&SYMBOL' NE '').OK                                     08600002
         MNOTE 'LOG ITEM SYMBOL NOT PROVIDED'                           08650002
         AGO   .CNT                                                     08700002
.OK      ANOP                                                           08750002
         AIF   ('&SYMBOL'(1,1) EQ '''').CNT                *TEMP*       08800002
&SYMBOL  EQU   *+&BYTE                                                  08850002
&ITEM(&ITEMNBR)  SETC '&SYSLIST(&OP,1)'                                 08900002
&BITS(&ITEMNBR) SETA &SYSLIST(&OP,2)                                    08950002
&SHIFT(&ITEMNBR) SETA &COUNT-&BYTE*8                                    09000002
.CNT     ANOP                                                           09050002
&COUNT   SETA  &COUNT+&SYSLIST(&OP,2)                                   09100002
&BYTE    SETA  &COUNT/8                                                 09150002
         AIF (&OP LT N'&SYSLIST).LOOP                                   09200002
         AIF   (&COUNT NE 32).NOT32                                     09250002
&NAME    DS    4C                                                       09300002
         MEXIT                                                          09350002
.NOT32   AIF   (&COUNT NE 64).ERR                                       09400002
&NAME    DS    8C                                                       09450002
         MEXIT                                                          09500002
.ERR     MNOTE '**BIT COUNT FIELDS DO NOT TOTAL 32 OR 64**'             09550002
         MEND                                                           09600002
         MACRO                                                          09650002
         LINEND                                                         09700002
.*                            THIS MACRO IS USED ONLY BY THE LINE       09750002
.*                                 MACRO TO SET THE NUMBER OF ENTRIES   09800002
.*                                 ASSOCIATED WITH EACH LINE.           09850002
         GBLA  &NRENTS                                                  09900002
         GBLC &NRENTSX                                                  09950002
         ORG   &NRENTSX                                                 10000002
         DC    FL1'&NRENTS'                                             10050002
         ORG                                                            10100002
&NRENTS  SETA  0                                                        10150002
B&SYSNDX EQU   *                                                        10200002
&NRENTSX SETC  'B&SYSNDX'                                               10250002
         MEND                                                           10300002
         SPACE 2                                                        10350002
         EJECT                                                          10400002
*  LABEL MACRO     LABEL MACRO     LABEL MACRO     LABEL MACRO        * 10450002
         SPACE 2                                                        10500002
         MACRO                                                          10550002
&NAME    LABEL &LABEL1,&LABEL2,&LABEL3,&LABEL4,&LABEL5,&LABEL6,        C10600002
               &LABEL7,&LABEL8                                          10650002
.*                            THIS MACRO ALLOWS UP TO ACHT LABELS TO    10700002
.*                                 BE SPECIFIED FOR A GIVEN LINE. THE   10750002
.*                                 LABELS SHOULD BE ENCLOSED IN QUOTA-  10800002
.*                                 TION MARKS. THE COLUMN AND LINE END  10850002
.*                                 CONTROLS WILL BE INSERTED BY THE     10900002
.*                                 MACRO. OMITTED OPERANDS MEAN NO      10950002
.*                                 LABEL REQUIRED FOR RESPECTIVE        11000002
.*                                 COLUMN. THIS MACRO WILL ALSO ALERT   11050002
.*                                 THE PROGRAMMER TO EXACTLY WHERE THE  11100002
.*                                 TABLE MUST BE BROKEN IF NECESSARY    11150002
.*                                 TO AVOID EXCEEDING THE MAXIMUM LIMIT 11200002
         GBLC &LABELS(2000)                                             11250002
         GBLC  &LBL(100)                                                11300002
         GBLA  &LBLCTR(100)                                             11350002
         GBLA  &LABELNR                                                 11400002
         GBLA  &NRENTS,&LPTR                                            11450002
         LCLC  &MARGIN,&TACK                                            11500002
         LCLC  &TEXT                                                    11550002
         LCLA  &OP,&K,&START,&NRCHAR,&REMAIN                            11600002
&MARGIN  SETC  '*'                                                      11650002
         AIF   ('&NAME' EQ '').LOOPOUT                                  11700002
&LPTR    SETA  &LPTR+1                                                  11750002
&LBL(&LPTR) SETC '&NAME'                                                11800002
&LBLCTR(&LPTR) SETA &LABELNR+1                                          11850002
.LOOPOUT ANOP                                                           11900002
&OP      SETA  &OP+1                                                    11950002
&K       SETA  K'&SYSLIST(&OP)                                          12000002
         AIF (&K GE 2).NORM                                             12050002
&K       SETA  2                                                        12100002
.NORM    ANOP                                                           12150002
&START   SETA  2                                                        12200002
         AIF (&OP LT N'&SYSLIST).NOTLAST                                12250002
&MARGIN  SETC  '$'                                                      12300002
.NOTLAST ANOP                                                           12350002
&NRCHAR  SETA  8                                                        12400002
&TACK    SETC  ''                                                       12450002
.LOOPIN  ANOP                                                           12500002
&REMAIN  SETA  &K-&START                                                12550002
         AIF (&REMAIN GE 8).MORE                                        12600002
&TACK    SETC  '&MARGIN'                                                12650002
&NRCHAR  SETA  &REMAIN                                                  12700002
.MORE    ANOP                                                           12750002
&TEXT    SETC  ''                                                       12800002
         AIF (&REMAIN EQ 0).ENDTEXT                                     12850002
&TEXT    SETC  '&SYSLIST(&OP)'(&START,&NRCHAR)                          12900002
.ENDTEXT ANOP                                                           12950002
&LABELNR SETA  &LABELNR+1                                               13000002
&LABELS(&LABELNR) SETC '&TEXT'.'&TACK'                                  13050002
&START   SETA  &START+8                                                 13100002
         AIF ('&TACK' EQ '').LOOPIN                                     13150002
         AIF ('&TACK' EQ '*').LOOPOUT                                   13200002
         MEND                                                           13250002
         SPACE 2                                                        13300002
         MACRO                                                          13350002
         LSTART                                                         13400002
.*                            THIS MACRO IS ISSUED WHEN THE LABEL AREA  13450002
.*                                 OF THE TABLE IS TO BEGIN.            13500002
         GBLC &LABELS(2000)                                             13550002
         GBLA  &LABELNR                                                 13600002
         GBLC  &LBL(100)                                                13650002
         GBLA  &LBLCTR(100)                                             13700002
         LCLA  &NDX,&CTR                                                13750002
         LINEND                                                         13800002
&CTR     SETA  1                                                        13850002
.LOOP    ANOP                                                           13900002
&NDX     SETA  &NDX+1                                                   13950002
         AIF   (&LBLCTR(&CTR) NE &NDX).NOLBL                            14000002
&LBL(&CTR) DC  C'&LABELS(&NDX)'                                         14050002
&CTR     SETA  &CTR+1                                                   14100002
         AGO   .LOOPCTL                                                 14150002
.NOLBL   ANOP                                                           14200002
         DC    C'&LABELS(&NDX)'                                         14250002
.LOOPCTL AIF   (&NDX LT &LABELNR).LOOP                                  14300002
         MEND                                                           14350002
         SPACE 2                                                        14400002
*  BIN MACRO     BIN MACRO     BIN MACRO     BIN MACRO     BIN MACRO  * 14450002
         SPACE 2                                                        14500002
         MACRO                                                          14550002
         BIN   &LOGITEM,&SKIP$OR                                        14600002
.*                                 &LOGITEM - NAME OF ITEM IN LOG       14650002
.*                                      RECORD DSECT                    14700002
.*                                 &SKIP$OR - NBR OF SPACES TO SKIP ON  14750002
.*                                 MULTIPLE PRINT OR NBR OF SPACES      14800002
.*                                      TO BACK UP FROM COLUMN FOR      14850002
.*                                      START OF PRINTING. THE LETTER   14900002
.*                                      B PRECEEDS THE NUMBER (B5) IF   14950002
.*                                      THE LATTER IS DESIRED. OMISSION 15000002
.*                                      OF THIS OPERAND FORCES OPTION 2 15050002
.*                                      WITH BACKUP SPACING EQUAL TO    15100002
.*                                 THE NUMBER OF BITS IN THE ITEM       15150002
.*                                 DEFINITION (VIA MACRO 'DSGEN').      15200002
.*                            A LIMIT OF 15 BITS IS IMPOSED FOR THE     15250002
.*                                 TOTAL NUMBER OF BITS TO PRINT.       15300002
         GBLC &ITEM(1000)                                               15350002
         GBLA &ITEMNBR,&BITS(1000),&SHIFT(1000),&NRENTS                 15400002
         GBLC  &DSECT                                                   15450002
         LCLB  &B                                                       15500002
         LCLA  &IBITS,&NDX,&ISHIFT,&K                                   15550002
         LCLA  &TEMP,&T                                                 15600002
         LCLC  &S                                                       15650002
.LOOP    ANOP                                                           15700002
&NDX     SETA  &NDX+1                                                   15750002
         AIF   ('&ITEM(&NDX)' EQ '&LOGITEM').FOUND                      15800002
         AIF   (&NDX LT &ITEMNBR).LOOP                                  15850002
         MNOTE *,'YOU BLEW IT'                                          15900002
         ROUTINE DUM,SKIPPER                                            15950002
         MEXIT                                                          16000002
.FOUND   ANOP                                                           16050002
&ISHIFT  SETA  &SHIFT(&NDX)                                             16100002
&IBITS   SETA  &BITS(&NDX)                                              16150002
&T       SETA  &IBITS-1                                                 16200002
&B       SETB  0                                                        16250002
         AIF   ('&SKIP$OR' EQ '').BACKUP                                16300002
&K       SETA  K'&SKIP$OR                                               16350002
&B       SETB  ('&SKIP$OR'(1,1) EQ 'B')                                 16400002
&S       SETC  '&SKIP$OR'(&B+1,&K-&B)                                   16450002
&T       SETA  &S                                                       16500002
.BACKUP  ANOP                                                           16550002
&NRENTS  SETA  &NRENTS+1                                                16600002
&TEMP    SETA  &ISHIFT                                                  16650002
A&SYSNDX DC    AL.12(&LOGITEM-&DSECT),XL.4'&TEMP'                       16700002
         AIF (&IBITS EQ 1 AND &B EQ 0).OUT                              16750002
         ORG   A&SYSNDX                                                 16800002
&B       SETB  1                                                        16850002
         DC    AL.12(&LOGITEM-&DSECT),XL.4'C'                           16900002
         DC    BL.1'&B',AL.7(&T),AL.4(&IBITS),FL.4'&ISHIFT'             16950002
.OUT     ANOP                                                           17000002
         MEND                                                           17050002
         EJECT                                                          17100002
*  HEX MACRO     HEX MACRO     HEX MACRO    HEXN MACRO     HEX MACRO  * 17150002
         SPACE 2                                                        17200002
         MACRO                                                          17250002
         HEX   &LOGITEM,&SKIP$OR,&BYTES                                 17300002
.*                            THIS MACRO FACILITATES GENERATION OF THE  17350002
.*                                 TABLE ENTRIES SPECIFYING HEX TYPE    17400002
.*                                 CONVERSIONS.                         17450002
.*                            &LOGITEM - NAME OF DATA ITEM TO BE        17500002
.*                                 CONVERTED                            17550002
.*                            &SKIP$OR - NUMBER OF SPACES TO SKIP ON    17600002
.*                                 MULTIPLE PRINT OR NBR OF SPACES TO   17650002
.*                                 BACK UP FROM COLUMN FOR START OF     17700002
.*                                 PRINTING. THE LETTER B PRECEEDS THE  17750002
.*                                 NUMBER (B8) IF THE LATTER OPTION IS  17800002
.*                                 DESIRED. OMISSION OF THIS OPERAND    17850002
.*                                 FORCES OPTION 2 WITH BACKUP SPACING  17900002
.*                                 EQUAL TO THE NUMBER OF BYTES SPECI-  17950002
.*                                 FIED BY THE NEXT OPERAND (TWICE THIS 18000002
.*                                 NUMBER IF SUFFIX IS EXPLICITLY OR    18050002
.*                                 IMPLICITLY B).                       18100002
.*                            &BYTES - NUMBER OF TOTAL INPUT BYTES TO   18150002
.*                                 PROCESS. THIS NUMBER IS SUFFIXED     18200002
.*                                 WITH AN L,R, OR B TO STIPULATE       18250002
.*                                 PRINTING OF THE LEFT HALF, RIGHT     18300002
.*                                 HALF, OR BOTH HALVES OF THE BYTE     18350002
.*                                 RESPECTIVELY. OMISSION OF THIS       18400002
.*                                 OPERAND DEFAULTS TO B WITH THE NUM-  18450002
.*                                 BER OF BYTES EQUAL TO THE ITEM LNGTH 18500002