         TITLE 'IFCE2870 - EDIT TABLE - LINKNAME=IFCE2870'              00060020
         TITLE 'IFCE2870 - EDIT TABLE - LINKNAME=IFCE2870'              00120020
         TITLE '****  2870 CHANNEL EDIT  ****'                          00180020
         MACRO                                                          00240002
&NAME    DSGEN ,                                                        00260002
.*                            THIS MACRO GENERATES ONE DSECT WORD       00280002
.*                                 FORMATTED FOR THE SUBJECT LOG RECORD 00300002
.*                                 EACH OPERAND HAS TWO SUB LISTS. THE  00320002
.*                                 FIRST IS THE NAME OF THE LOG ITEM    00340002
.*                                 WHILE THE SECOND IS THE # OF BITS TO 00360002
.*                                 ALLOCATE FOR THIS ITEM. ITEMS MUST   00380002
.*                                 BE DEFINED CONTIGUOUSLY WITHOUT GAPS 00400002
.*                                 UNUSED BIT GROUPS MUST BE GIVEN      00420002
.*                                 DUMMY NAMES. THE NAMES PROVIDED FOR  00440002
.*                                 THE LOG ITEMS MAY THEN BE USED IN    00460002
.*                                 THE CONVERSION MACRO INSTRUCTIONS.   00480002
         GBLC &ITEM(1500)                                      @YM2954P 00500002
         GBLA &ITEMNBR,&BITS(1500),&SHIFT(1500)                @YM2954P 00520002
         LCLB  &ONLY1,&CTIND                                   @YM2954P 00540002
         LCLA  &START1,&START2,&END1,&END2                     @YM2954P 00560002
         LCLC  &SYMBOL,&EQUSYM                                 @YM2954P 00580002
         LCLA  &OP,&COUNT,&BYTE,&EQUCNT                        @YM2954P 00600002
         ACTR  100000                                          @YM2954P 00620002
.START   AIF   (N'&SYSLIST(&OP+1) LT 3).LOOP                   @YM2954P 00640002
         AIF   ('&SYSLIST(&OP+1,3)' EQ 'EQU').LOOP     TEST FOR EQU     00660002
  AIF   ('&SYSLIST(&OP+1,3)' EQ '' OR '&SYSLIST(&OP+1,4)' EQ '').ERR1   00680002
         AIF   ('&SYSLIST(&OP+1,3)' GT '&SYSLIST(&OP+1,4)').ERR3        00700002
&START1  SETA  &SYSLIST(&OP+1,3)        GET START COUNT OF 1   @YM2954P 00720002
&START2  SETA  &SYSLIST(&OP+1,4)        GET FIRST END COUNT    @YM2954P 00740002
         AGO   .SET2A                   BRANCH AROUND          @YM2954P 00760002
.ERR1    MNOTE '**FIRST SYMBOL CONCATENATION INCOMPLETE**'     @YM2954P 00780002
         MEXIT                                                 @YM2954P 00800002
.SET2A   AIF   ('&SYSLIST(&OP+1,5)' EQ ''AND '&SYSLIST(&OP+1,6)' EQ '' X00820002
               ).SET2                   TEST FOR NO SECOND     @YM2954P 00840002
  AIF   ('&SYSLIST(&OP+1,5)' EQ '' OR '&SYSLIST(&OP+1,6)' EQ '').ERR2   00860002
         AIF   ('&SYSLIST(&OP+1,5)' GT '&SYSLIST(&OP+1,6)').ERR3        00880002
&END1    SETA  &SYSLIST(&OP+1,5)        GET START COUNT OF 2   @YM2954P 00900002
&END2    SETA  &SYSLIST(&OP+1,6)        GET END COUNT OF 2     @YM2954P 00920002
         AGO   .LOOP                                           @YM2954P 00940002
.SET2    ANOP                                                  @YM2954P 00960002
&ONLY1   SETB  1                        INDICATE ONLY ONE CONCATENATION 00980002
         AGO   .LOOP                                           @YM2954P 01000002
.ERR2    MNOTE '**SECOND SYMBOL CONCATENATION INCOMPLETE**'    @YM2954P 01020002
         MEXIT                                                 @YM2954P 01040002
.ERR3    MNOTE '**START GREATER THAN END CONCATENATION**'      @YM2954P 01060002
         MEXIT                                                 @YM2954P 01080002
.LOOP    ANOP                                                  @YM2954P 01100002
&OP      SETA  &OP+1                                           @YM2954P 01120002
         AIF   (&OP GT N'&SYSLIST).DONE      TEST IF ALL DONE  @YM2954P 01140002
&ITEMNBR SETA  &ITEMNBR+1                                      @YM2954P 01160002
         AIF   ('&SYSLIST(&OP,2)' NE '').OK1                   @YM2954P 01180002
         MNOTE '**NULL BIT COUNT FIELD**'                      @YM2954P 01200002
         MEXIT                                                 @YM2954P 01220002
.OK1     ANOP                                                  @YM2954P 01240002
&SYMBOL  SETC  '&SYSLIST(&OP,1)'                               @YM2954P 01260002
         AIF   ('&SYMBOL' NE '').OK                            @YM2954P 01280002
*              *****     LOG ITEM SYMBOL NOT PROVIDED     *****         01300002
         AIF   ('&SYSLIST(&OP,3)' NE 'EQU').CNT                @YM2954P 01320002
         AGO   .START                   GET NEXT               @YM2954P 01340002
.OK      AIF   (N'&SYSLIST(&OP) LT 3).NO3    TEST FOR OLD FORMAT        01360002
         AIF   ('&SYSLIST(&OP,3)' EQ 'EQU').EQU   TEST FOR EQU @YM2954P 01380002
         AIF   (&ONLY1).OK2             TEST FOR ONLY ONE CONCAT        01400002
&SYMBOL  SETC  '&SYMBOL.&START1.&END1'       GET 1 AND 2 CONCAT         01420002
         AGO   .NO3                     BRANCH AROUND          @YM2954P 01440002
.OK2     ANOP                                                  @YM2954P 01460002
&SYMBOL  SETC  '&SYMBOL.&START1'        GET 1 CONCATENATED     @YM2954P 01480002
.NO3     ANOP                                                  @YM2954P 01500002
&SYMBOL  EQU   *+&BYTE                                         @YM2954P 01520002
&ITEM(&ITEMNBR) SETC '&SYMBOL'          GET LABEL IN GLOBAL    @YM2954P 01540002
&BITS(&ITEMNBR) SETA &SYSLIST(&OP,2)                           @YM2954P 01560002
&SHIFT(&ITEMNBR) SETA &COUNT-&BYTE*8                           @YM2954P 01580002
.CNT     ANOP                                                  @YM2954P 01600002
&CTIND   SETB  1                        SET COUNT INDICATOR    @YM2954P 01620002
&COUNT   SETA  &COUNT+&SYSLIST(&OP,2)                          @YM2954P 01640002
&BYTE    SETA  &COUNT/8                                        @YM2954P 01660002
         AIF   (N'&SYSLIST(&OP) LT 3).START  TEST FOR OLD FORMAT        01680002
         AIF   (&ONLY1).TSTST           TEST FOR ONLY ONE CONCAT        01700002
         AIF   (&END1 EQ &END2).TSTST   TEST FOR SECOND END    @YM2954P 01720002
&END1    SETA  &END1+1                  INCREMENT COUNT        @YM2954P 01740002
&OP      SETA  &OP-1                    DECREMENT INCREMENT    @YM2954P 01760002
         AGO   .LOOP                    GENERATE NEXT          @YM2954P 01780002
.TSTST   ANOP                                                  @YM2954P 01800002
         AIF   (&START1 EQ &START2).LPDONE   TEST FOR END      @YM2954P 01820002
         AIF   (&ONLY1).NSET1           TEST FOR ONLY ONE CONCAT        01840002
&END1    SETA  &SYSLIST(&OP,5)          RE-INIT SECOND START COUNT      01860002
.NSET1   ANOP                                                  @YM2954P 01880002
&OP      SETA  &OP-1                    DECREMENT INDEX        @YM2954P 01900002
&START1  SETA  &START1+1                INCREMENT FIRST COUNT  @YM2954P 01920002
         AGO   .LOOP                    GO DO NEXT             @YM2954P 01940002
.LPDONE  ANOP                                                  @YM2954P 01960002
&ONLY1   SETB  0                        CLEAR INDICATOR        @YM2954P 01980002
         AGO   .START                   GO TEST FOR MORE SUB-LISTS      02000002
.DONE    AIF   (&COUNT-&COUNT/8*8 NE 0).ERR  TEST FOR MULTIPLE OF EIGHT 02020002
         AIF   (&CTIND EQ 0).END        NO DS IF NO COUNT      @YM2954P 02040002
&COUNT   SETA  &COUNT/8                 GET NUMBER OF BYTES    @YM2954P 02060002
&NAME    DS    &COUNT.C                                        @YM2954P 02080002
.END     MEXIT                                                 @YM2954P 02100002
.ERR     MNOTE '**BIT COUNT FLDS DO NOT TOTAL MULTIPLE OF 8**' @YM2954P 02120002
         MEXIT                                                 @YM2954P 02140002
.EQU     AIF   ('&SYSLIST(&OP,4)' NE '').EQU1     TEST FOR NULL LABEL   02160002
.ERR4    MNOTE '**EQU OPERAND OMITTED OR NOT FOUND**'          @YM2954P 02180002
         MEXIT                                                 @YM2954P 02200002
.EQU1    AIF   (&SYSLIST(&OP,2) LT 16).EQU2  COUNT OVER FIFTEEN         02220002
*****               THE FOLLOWING STATEMENT                *****        02240002
*****     NUMBER OF BITS EXCEED 15 - DO NOT USE AS BIN     *****        02260002
.EQU2    ANOP                                                  @YM2954P 02280002
&EQUCNT  SETA  0                        CLEAR COUNTER          @YM2954P 02300002
&EQUSYM  SETC  '&SYSLIST(&OP,4)'        GET EQU OPERAND        @YM2954P 02320002
.EQULOP  ANOP                                                  @YM2954P 02340002
&EQUCNT  SETA  &EQUCNT+1                INCREMENT INDEX        @YM2954P 02360002
         AIF   ('&ITEM(&EQUCNT)' EQ '&EQUSYM').EQUOUT  LABEL FOUND?     02380002
         AIF   (&EQUCNT EQ &ITEMNBR).ERR4    ALL TESTED?       @YM2954P 02400002
         AGO   .EQULOP                  NO-GET NEXT            @YM2954P 02420002
.EQUOUT  ANOP                                                  @YM2954P 02440002
&ITEM(&ITEMNBR) SETC '&SYMBOL'          GET LABEL NAME         @YM2954P 02460002
&BITS(&ITEMNBR) SETA &SYSLIST(&OP,2)    GET NUMBER OF BITS     @YM2954P 02480002
&SHIFT(&ITEMNBR) SETA &SHIFT(&EQUCNT)   GET SHIFT COUNT        @YM2954P 02500002
&SYMBOL  EQU   &EQUSYM                  THIS SYMBOL EQUATED    @YM2954P 02520002
         AGO   .START                   RETURN FOR NEXT        @YM2954P 02540002
         MEND                                                  @YM2954P 02560002
         EJECT                                                          03240020
*  LINE MACRO     LINE MACRO     LINE MACRO     LINE MACRO            * 03300020
         SPACE 2                                                        03360020
         MACRO                                                          03420020
&NAME    LINE  &DATA,&LABEL,&SKIP=                                      03480020
.*                            THIS MACRO ESTABLISHES THE MARGINS OR     03540020
.*                                 COLUMN SETTINGS FOR EACH LINE. IT    03600020
.*                                 GENERATES NECESSARY CARRIAGE CONTROL 03660020
.*                                 ENTRIES. LASTLY IT DETERMINES THE    03720020
.*                                 NUMBER OF ENTRIES ASSOCIATED WITH    03780020
.*                                 THE PREVIOUS LINE AND STORES THAT #  03840020
.*                                 INTO THE APPROPRIATE BYTE.           03900020
.*                            &DATA(1) - CHARACTER POSITION TO BEGIN    03960020
.*                                 DATA.                                04020020
.*                            &DATA(2) - # OF SPACES BETWEEN SUCCESSIVE 04080020
.*                                 DATA COLUMN STARTING CHARACTERS.     04140020
.*                            &LABEL(1) - CHAR. POS. TO BEGIN LABELS.   04200020
.*                            &LABEL(2) - # SPACES BETWEEN LINE'S LABEL 04260020
.*                                 STARTING CHARACTERS.                 04320020
.*                            &SKIP= - # OF LINES TO ADVANCE CARRIAGE   04380020
.*                                 TO BEGIN NEXT PRINTED LINE.          04440020
.*                            NEW ENTRIES ARE GENERATED ONLY WHEN       04500020
.*                                 NECESSARY. OMISSION OF ITEMS MEANS   04560020
.*                                 THEY HAVE NOT CHANGED SINCE PREVIOUS 04620020
.*                                 SETTINGS. A LINE MACRO IS REQUIRED   04680020
.*                                 FOR EACH PRINTED LINE. IF NO SETTING 04740020
.*                                 CHANGES ARE REQUIRED ALL OPERANDS    04800020
.*                                 ARE OMITTED IN WHICH CASE ONLY THE   04860020
.*                                 # OF ENTRIES FOR THE PREVIOUS LINE   04920020
.*                                 IS COMPUTED. THIS MACRO MUST BE THE  04980020
.*                                 FIRST MACRO INSTRUCTION ISSUED FOR   05040020
.*                                 THE SUBJECT LINE                     05100020
         GBLA  &DB,&DT,&LB,&LT,&NRENTS                                  05160020
         GBLA  &LASTCC,&INITIAL                                         05220020
         GBLC  &NRENTSX                                                 05280020
         GBLC  &CARRCON                                                 05340020
         GBLB  &TEST                                                    05400020
         LCLA  &S                                                       05460020
&NAME    DS    0C                                                       05520020
         AIF   (&INITIAL EQ 0).FIRSTLN                                  05580020
         LINEND                                                         05640020
         AGO   .NTFIRST                                                 05700020
.FIRSTLN ANOP                                                           05760020
&NRENTSX SETC  'N&SYSNDX'                                               05820020
&INITIAL SETA  1                                                        05880020
N&SYSNDX EQU   *                                                        05940020
.NTFIRST ANOP                                                           06000020
         DC    AL1(0)                                                   06060020
         AIF   ('&DATA(1)' EQ '').CKDTABS                               06120020
         AIF   (&DATA(1) EQ &DB).CKDTABS                                06180020
&DB      SETA  &DATA(1)                                                 06240020
         AGO   .AA                                                      06300020
.CKDTABS AIF   ('&DATA(2)' EQ '').NCDATA                                06360020
         AIF   (&DATA(2) EQ &DT).NCDATA                                 06420020
         AGO   .CC                                                      06480020
.AA      AIF   ('&DATA(2)' EQ '').BB                                    06540020
         AIF   (&DATA(2) EQ &DT).BB                                     06600020
.CC      ANOP                                                           06660020
&DT      SETA  &DATA(2)                                                 06720020
.BB      DC    XL2'FFFE'                                                06780020
         DC    FL1'&DB'                                                 06840020
         DC    FL1'&DT'                                                 06900020
&NRENTS  SETA  &NRENTS+1                                                06960020
.NCDATA  ANOP                                                           07020020
         AIF   ('&LABEL(1)' EQ '').CKLTABS                              07080020
         AIF   (&LABEL(1) EQ &LB).CKLTABS                               07140020
&LB      SETA  &LABEL(1)                                                07200020
         AGO   .AAA                                                     07260020
.CKLTABS AIF   ('&LABEL(2)' EQ '').NCLABEL                              07320020
         AIF   (&LABEL(2) EQ &LT).NCLABEL                               07380020
         AGO   .CCC                                                     07440020
.AAA     AIF   ('&LABEL(2)' EQ '').BBB                                  07500020
         AIF   (&LABEL(2) EQ &LT).BBB                                   07560020
.CCC     ANOP                                                           07620020
&LT      SETA  &LABEL(2)                                                07680020
.BBB     DC    XL2'FFFF'                                                07740020
         DC    FL1'&LB'                                                 07800020
         DC    FL1'&LT'                                                 07860020
&NRENTS  SETA  &NRENTS+1                                                07920020
.NCLABEL ANOP                                                           07980020
         AIF   ('&SKIP' NE '').CONT                                     08040020
         AIF   (&TEST EQ 0).NOCHANG                                     08100020
&S       SETA  &LASTCC                                                  08160020
         AGO   .DEFAULT                                                 08220020
.CONT    ANOP                                                           08280020
         AIF   (&TEST EQ 0).AB                                          08340020
&S       SETA  &SKIP                                                    08400020
.DEFAULT ANOP                                                           08460020
         ORG   &CARRCON+3                                               08520020
         DC    AL.3(0),AL.2(&S),AL.3(1)                                 08580020
         ORG                                                            08640020
&LASTCC  SETA  &S                                                       08700020
&TEST    SETB  0                                                        08760020
         AGO   .DD                                                      08820020
.AB      AIF   (&SKIP EQ &LASTCC).NOCHANG                               08880020
A&SYSNDX DC    XL2'FFFB'                                                08940020
         DC    AL.3(0),AL.2(&SKIP),AL.3(1)                              09000020
         DC    FL1'9'                                                   09060020
&LASTCC  SETA  &SKIP                                                    09120020
&TEST    SETB  1                                                        09180020
&CARRCON SETC  'A&SYSNDX'                                               09240020
&NRENTS  SETA  &NRENTS+1                                                09300020
.DD      ANOP                                                           09360020
.NOCHANG ANOP                                                           09420020
         MEND                                                           09480020
         EJECT                                                          09540020
*  BIN MACRO     BIN MACRO     BIN MACRO     BIN MACRO     BIN MACRO  * 09600020
         SPACE 2                                                        09660020
         MACRO                                                          09720020
         BIN   &LOGITEM,&SKIP$OR                                        09780020
.*                                 &LOGITEM - NAME OF ITEM IN LOG       09840020
.*                                      RECORD DSECT                    09900020
.*                                 &SKIP$OR - NBR OF SPACES TO SKIP ON  09960020
.*                                 MULTIPLE PRINT OR NBR OF SPACES      10020020
.*                                      TO BACK UP FROM COLUMN FOR      10080020
.*                                      START OF PRINTING. THE LETTER   10140020
.*                                      B PRECEEDS THE NUMBER (B5) IF   10200020
.*                                      THE LATTER IS DESIRED. OMISSION 10260020
.*                                      OF THIS OPERAND FORCES OPTION 2 10320020
.*                                      WITH BACKUP SPACING EQUAL TO    10380020
.*                                 THE NUMBER OF BITS IN THE ITEM       10440020
.*                                 DEFINITION (VIA MACRO 'DSGEN').      10500020
.*                            A LIMIT OF 15 BITS IS IMPOSED FOR THE     10560020
.*                                 TOTAL NUMBER OF BITS TO PRINT.       10620020
         GBLC  &ITEM(1500)                                              10680020
         GBLA  &ITEMNBR,&BITS(1500),&SHIFT(1500),&NRENTS                10740020
         GBLC  &DSECT                                                   10800020
         LCLB  &B                                                       10860020
         LCLA  &IBITS,&NDX,&ISHIFT,&K                                   10920020
         LCLA  &TEMP                                                    10980020
         LCLC  &S                                                       11040020
.LOOP    ANOP                                                           11100020
&NDX     SETA  &NDX+1                                                   11160020
         AIF   ('&ITEM(&NDX)' EQ '&LOGITEM').FOUND                      11220020
         AIF   (&NDX LT &ITEMNBR).LOOP                                  11280020
         MNOTE *,'YOU BLEW IT'                                          11340020
         ROUTINE DUM,SKIPPER                                            11400020
         MEXIT                                                          11460020
.FOUND   ANOP                                                           11520020
&ISHIFT  SETA  &SHIFT(&NDX)                                             11580020
&IBITS   SETA  &BITS(&NDX)                                              11640020
&S       SETC  '&IBITS'                                                 11700020
&B       SETB  1                                                        11760020
         AIF   ('&SKIP$OR' EQ '').BACKUP                                11820020
&K       SETA  K'&SKIP$OR                                               11880020
&B       SETB  ('&SKIP$OR'(1,1) EQ 'B')                                 11940020
&S       SETC  '&SKIP$OR'(&B+1,&K-&B)                                   12000020
.BACKUP  ANOP                                                           12060020
&NRENTS  SETA  &NRENTS+1                                                12120020
&TEMP    SETA  &ISHIFT+1                                                12180020
A&SYSNDX DC    AL.12(&LOGITEM-&DSECT),XL.4'&TEMP'                       12240020
         AIF (&IBITS EQ 1 AND &B EQ 0).OUT                              12300020
         ORG   A&SYSNDX                                                 12360020
         DC    AL.12(&LOGITEM-&DSECT),XL.4'C'                           12420020
         DC    BL.1'&B',AL.7(&S),AL.4(&IBITS),FL.4'&ISHIFT'             12480020
.OUT     ANOP                                                           12540020
         MEND                                                           12600020
         EJECT                                                          12660020
*  HEX MACRO     HEX MACRO     HEX MACRO    HEXN MACRO     HEX MACRO  * 12720020
         SPACE 2                                                        12780020
         MACRO                                                 @YL02021 12840002
         HEX   ,                                               @YL02021 12870002
.*                            THIS MACRO FACILITATES GENERATION OF THE  12900002
.*                                 TABLE ENTRIES SPECIFYING HEX TYPE    12930002
.*                                 CONVERSIONS.                @YL02021 12960002
.*                            &SYSLIST(&OP,1) - NAME OF DATA ITEM TO BE 12990002
.*                                 CONVERTED                   @YL02021 13020002
.*                            &SYSLIST(&OP,2) - # OF SPACES TO SKIP ON  13050002
.*                                 MULTIPLE PRINT OR NBR OF SPACES TO   13080002
.*                                 BACK UP FROM COLUMN FOR START OF     13110002
.*                                 PRINTING. THE LETTER B PRECEEDS THE  13140002
.*                                 NUMBER (B8) IF THE LATTER OPTION IS  13170002
.*                                 DESIRED. OMISSION OF THIS OPERAND    13200002
.*                                 FORCES OPTION 2 WITH BACKUP SPACING  13230002
.*                                 EQUAL TO THE NUMBER OF BYTES SPECI-  13260002
.*                                 FIED BY THE NEXT OPERAND (TWICE THIS 13290002
.*                                 NUMBER IF SUFFIX IS EXPLICITLY OR    13320002
.*                                 IMPLICITLY B).              @YL02021 13350002
.*                            &SYSLIST(&OP,3) - NUMBER OF BYTES TO      13380002
.*                                 PROCESS. THIS NUMBER IS SUFFIXED     13410002
.*                                 WITH AN L,R, OR B TO STIPULATE       13440002
.*                                 PRINTING OF THE LEFT HALF, RIGHT     13470002
.*                                 HALF, OR BOTH HALVES OF THE BYTE     13500002
.*                                 RESPECTIVELY. OMISSION OF THIS       13530002
.*                                 OPERAND DEFAULTS TO B WITH THE NUM-  13560002
.*                                 BER OF BYTES EQUAL TO THE ITEM LNGTH 13590002
.*                            A NEW ENTRY IS GENERATED ONLY WHEN NECES- 13620002
.*                                 SARY. THIS MACRO MUST BE THE FIRST   13650002
.*                                 MACRO INSTRUCTION ISSUED FOR THE     13680002
.*                                 SUBJECT LINE(S).            @YL02021 13710002
         GBLC &ITEM(1500),&DSECT                               @YL02021 13740002
         GBLA &ITEMNBR,&BITS(1500),&SHIFT(1500),&NRENTS        @YL02021 13770002
         GBLA  &INITIAL                                        @YL02021 13800002
         GBLB  &DIAGTST,&DIAGSET,&DIAGLIN                      @YL02021 13830002
         LCLB  &B,&SUB                                         @YL02021 13860002
         LCLA  &IBITS,&NDX,&ISHIFT,&K,&T,&CODE,&BYTESP,&OP     @YL02021 13890002
         LCLC  &S,&LETTER                                      @YL02021 13920002
         AIF   (&DIAGTST EQ 0).NOMSG                           @YL02021 13950002
         AIF   (&INITIAL EQ 0).NOMSG                           @YL02021 13980002
         AIF   (&DIAGLIN EQ 1).NOMSG                           @YL02021 14010002
         MNOTE '**NO LINE ASSOCIATED WITH THIS DATA**'         @YL02021 14040002
*****THE FOLLOWING GENERATED FOR TEST PURPOSES*****            @YL02021 14070002
*        LINE                                                  @YL02021 14100002
         LINE                                                  @YL02021 14130002
.NOMSG   ANOP                                                  @YL02021 14160002
         AIF   (K'&SYSLIST(1) EQ K'&SYSLIST(1,1)).LOOP         @YL02021 14190002
&SUB     SETB  1                                               @YL02021 14220002
.LOOP    ANOP                                                  @YL02021 14250002
&OP      SETA  &OP+1                                           @YL02021 14280002
.LOOP1   ANOP                                                  @YL02021 14310002
&NDX     SETA  &NDX+1                                          @YL02021 14340002
         AIF   ('&ITEM(&NDX)' EQ '&SYSLIST(&OP,1)').FOUND      @YL02021 14370002
         AIF   (&NDX LT &ITEMNBR).LOOP1                        @YL02021 14400002
         MNOTE '**LOG ITEM NOT DEFINED**'                      @YL02021 14430002
         MEXIT                                                 @YL02021 14460002
.FOUND   ANOP                                                  @YL02021 14490002
&ISHIFT  SETA  &SHIFT(&NDX)                                    @YL02021 14520002
&IBITS   SETA  &BITS(&NDX)                                     @YL02021 14550002
         AIF   (&ISHIFT EQ 0 OR &ISHIFT EQ 4).ALIGN            @YL02021 14580002
.ERR     MNOTE '**DATA NOT ALLIGNED ON HEX OR BYTE BOUNDARY**' @YL02021 14610002
         MEXIT                                                 @YL02021 14640002
.ALIGN   ANOP                                                  @YL02021 14670002
&CODE    SETA  1                                               @YL02021 14700002
         AIF   (&SUB EQ 1).SUBA                                @YL02021 14730002
&K       SETA  K'&SYSLIST(3)                                   @YL02021 14760002
         AGO   .SUBB                                           @YL02021 14790002
.SUBA    ANOP                                                  @YL02021 14820002
&K       SETA  K'&SYSLIST(&OP,3)                               @YL02021 14850002
.SUBB    ANOP                                                  @YL02021 14880002
         AIF   (&IBITS-(&IBITS/4)*4 EQ 0).OK                   @YL02021 14910002
         MNOTE '**BIT LENGTH SPECIFICATION INCONSISTENT WITH CONTROL**' 14940002
         MEXIT                                                 @YL02021 14970002
.OK      AIF   (&SUB EQ 1).SUBC                                @YL02021 15000002
         AIF   ('&SYSLIST(3)' EQ '').USEDEFN                   @YL02021 15030002
&LETTER  SETC  '&SYSLIST(3)'(&K,1)                             @YL02021 15060002
&S       SETC  '&SYSLIST(3)'(1,&K-1)                           @YL02021 15090002
         AGO   .SUBD                                           @YL02021 15120002
.SUBC    ANOP                                                  @YL02021 15150002
         AIF   ('&SYSLIST(&OP,3)' EQ '').USEDEFN               @YL02021 15180002
&LETTER  SETC  '&SYSLIST(&OP,3)'(&K,1)                         @YL02021 15210002
&S       SETC  '&SYSLIST(&OP,3)'(1,&K-1)                       @YL02021 15240002
.SUBD    ANOP                                                  @YL02021 15270002
&BYTESP  SETA  &S                                              @YL02021 15300002
         AIF   ('&LETTER' EQ 'B').BOTH                         @YL02021 15330002
         AIF   ('&LETTER' EQ 'L').LEFT                         @YL02021 15360002
&CODE    SETA  2                                               @YL02021 15390002
         AGO   .L                                              @YL02021 15420002
.LEFT    ANOP                                                  @YL02021 15450002
&CODE    SETA  1                                               @YL02021 15480002
         AGO   .L                                              @YL02021 15510002