         TITLE 'IFCEXXX6 - EDIT TABLE - LINKNAME=IFCE2314'              00080002
         SPACE 2                                                        00160002
*  LINE MACRO     LINE MACRO     LINE MACRO     LINE MACRO            * 00240002
         MACRO                                                          00320002
&NAME    LINE  &DATA,&LABEL,&SKIP=                                      00400002
.*                            THIS MACRO ESTABLISHES THE MARGINS OR     00480002
.*                                 COLUMN SETTINGS FOR EACH LINE. IT    00560002
.*                                 GENERATES NECESSARY CARRIAGE CONTROL 00640002
.*                                 ENTRIES. LASTLY IT DETERMINES THE    00720002
.*                                 NUMBER OF ENTRIES ASSOCIATED WITH    00800002
.*                                 THE PREVIOUS LINE AND STORES THAT #  00880002
.*                                 INTO THE APPROPRIATE BYTE.           00960002
.*                                 &DATA(1) - CHARACTER POSITION TO     01040002
.*                                 BEGIN DATA.                          01120002
.*                                                                      01200002
.*                                 &DATA(2) - # OF SPACES BETWEEN       01280002
.*                                 SUCCESSIVE DATA COLUMN STARTING      01360002
.*                                 CHARACTERS.                          01440002
.*                                                                      01520002
.*                                 &LABEL(1) - CHARACTER POSITION       01600002
.*                                 TO BEGIN LABELS.                     01680002
.*                                                                      01760002
.*                                 &LABEL(2) - # OF SPACES BETWEEN      01840002
.*                                 LINE'S LABEL STARTING CHARACTERS.    01920002
.*                                                                      02000002
.*                                 &SKIP= - # OF LINES TO ADVANCE       02080002
.*                                 CARRIAGE TO BEGIN NEXT PRINTED LINE. 02160002
.*                                                                      02240002
.*                                 NEW ENTRIES ARE GENERATED ONLY WHEN  02320002
.*                                 NECESSARY. OMISSION OF ITEMS MEANS   02400002
.*                                 THEY HAVE NOT CHANGED SINCE PREVIOUS 02480002
.*                                 SETTINGS. A LINE MACRO IS REQUIRED   02560002
.*                                 FOR EACH PRINTED LINE. IF NO SETTING 02640002
.*                                 CHANGES ARE REQUIRED ALL OPERANDS    02720002
.*                                 ARE OMITTED IN WHICH CASE ONLY THE   02800002
.*                                 # OF ENTRIES FOR THE PREVIOUS LINE   02880002
.*                                 FIRST MACRO INSTRUCTION ISSUED FOR   02960002
.*                                 THE SUBJECT LINE.                    03040002
         GBLA  &DB,&DT,&LB,&LT,&NRENTS                                  03120002
         GBLA  &LASTCC,&INITIAL                                         03200002
         GBLC  &NRENTSX                                                 03280002
         GBLC  &CARRCON                                                 03360002
         GBLB  &TEST                                                    03440002
         LCLA  &S                                                       03520002
&NAME    DS    0C                                                       03600002
         AIF   (&INITIAL EQ 0).FIRSTLN                                  03680002
         LINEND                                                         03760002
         AGO   .NTFIRST                                                 03840002
.FIRSTLN ANOP                                                           03920002
&NRENTSX SETC  'N&SYSNDX'                                               04000002
&INITIAL SETA  1                                                        04080002
&LASTCC  SETA  1                                                        04160002
N&SYSNDX EQU   *                                                        04240002
.NTFIRST ANOP                                                           04320002
         DC    AL1(0)                                                   04400002
         AIF   ('&DATA(1)' EQ '').CKDTABS                               04480002
         AIF   ('&DATA'(1,1) NE '(').SLABEL                             04560002
         AIF   (&DATA(1) EQ &DB).CKDTABS                                04640002
&DB      SETA  &DATA(1)                                                 04720002
         AGO   .AA                                                      04800002
.CKDTABS AIF   ('&DATA(2)' EQ '').NCDATA                                04880002
         AIF   (&DATA(2) EQ &DT).NCDATA                                 04960002
         AGO   .CC                                                      05040002
.AA      AIF   ('&DATA(2)' EQ '').BB                                    05120002
         AIF   (&DATA(2) EQ &DT).BB                                     05200002
.CC      ANOP                                                           05280002
&DT      SETA  &DATA(2)                                                 05360002
.BB      DC    XL2'FFFE'                                                05440002
         DC    FL1'&DB'                                                 05520002
         DC    FL1'&DT'                                                 05600002
&NRENTS  SETA  &NRENTS+1                                                05680002
.NCDATA  ANOP                                                           05760002
         AIF   ('&LABEL(1)' EQ '').CKLTABS                              05840002
         AIF   ('&LABEL'(1,1) NE '(').SLABEL                            05920002
         AIF   (&LABEL(1) EQ &LB).CKLTABS                               06000002
&LB      SETA  &LABEL(1)                                                06080002
         AGO   .AAA                                                     06160002
.CKLTABS AIF   ('&LABEL(2)' EQ '').NCLABEL                              06240002
         AIF   (&LABEL(2) EQ &LT).NCLABEL                               06320002
         AGO   .CCC                                                     06400002
.AAA     AIF   ('&LABEL(2)' EQ '').BBB                                  06480002
         AIF   (&LABEL(2) EQ &LT).BBB                                   06560002
.CCC     ANOP                                                           06640002
&LT      SETA  &LABEL(2)                                                06720002
.BBB     DC    XL2'FFFF'                                                06800002
         DC    FL1'&LB'                                                 06880002
         DC    FL1'&LT'                                                 06960002
&NRENTS  SETA  &NRENTS+1                                                07040002
.NCLABEL ANOP                                                           07120002
         AIF   ('&SKIP' EQ 'E').EJECT                                   07200002
         AIF   ('&SKIP' EQ '').TESTOFF                                  07280002
.CONT    ANOP                                                           07360002
         AIF   (&TEST EQ 0).AB                                          07440002
         AIF   (&SKIP EQ &LASTCC).TESTOFF                               07520002
&S       SETA  &SKIP                                                    07600002
         ORG   &CARRCON+3                                               07680002
         DC    AL.3(0),AL.2(&S),AL.3(1)                                 07760002
         ORG                                                            07840002
&LASTCC  SETA  &S                                                       07920002
.SLABEL  ANOP                                                           08000002
.TESTOFF ANOP                                                           08080002
&TEST    SETB  0                                                        08160002
         AGO   .DD                                                      08240002
.EJECT   DC    XL2'FFFB'                                                08320002
&NRENTS  SETA  &NRENTS+1                                                08400002
         DC    X'8B'              SKIP TO CHANNEL 1                     08480002
         DC    AL.3(0),AL.2(&LASTCC),AL.3(1)                            08560002
&TEST    SETB  1                                                        08640002
         AGO   .DD                                                      08720002
.AB      AIF   (&SKIP EQ &LASTCC).NOCHANG                               08800002
A&SYSNDX DC    XL2'FFFB'                                                08880002
         DC    AL.3(0),AL.2(&SKIP),AL.3(1)                              08960002
         DC    AL.3(0),AL.2(&SKIP),AL.3(1)                              09040002
&LASTCC  SETA  &SKIP                                                    09120002
&TEST    SETB  1                                                        09200002
&CARRCON SETC  'A&SYSNDX'                                               09280002
&NRENTS  SETA  &NRENTS+1                                                09360002
.DD      ANOP                                                           09440002
.NOCHANG ANOP                                                           09520002
         MEND                                                           09600002
         SPACE 2                                                        09680002
*  ROUTINE MACRO     ROUTINE MACRO     ROUTINE MACRO     ROUTINE MACRO* 09760002
         MACRO                                                          09840002
&NAME    ROUTINE &LOGITEM,&RNAME                                        09920002
         GBLC  &DSECT,&CSECT                                            10000002
         GBLC  &ITEM(1000)                                              10080002
         GBLA  &SHIFT(1000),&ITEMNBR                                    10160002
         GBLA  &NRENTS                                                  10240002
         LCLA  &ISHIFT,&NDX                                             10320002
.LOOP    ANOP                                                           10400002
&NDX     SETA  &NDX+1                                                   10480002
         AIF   ('&ITEM(&NDX)' EQ '&LOGITEM').FOUND                      10560002
         AIF   (&NDX LT &ITEMNBR).LOOP                                  10640002
         MNOTE *,'LOG ITEM NOT DEFINED'                                 10720002
         MEXIT                                                          10800002
.FOUND   ANOP                                                           10880002
&ISHIFT  SETA  &SHIFT(&NDX)                                             10960002
&NAME    DC    AL.12(&LOGITEM-&DSECT),XL.4'D'                           11040002
         DC    AL.4(&ISHIFT),AL.12(&RNAME-&CSECT)                       11120002
&NRENTS  SETA  &NRENTS+1                                                11200002
         MEND                                                           11280002
*  DSGEN MACRO     DSGEN MACRO     DSGEN MACRO     DSGEN MACRO        * 11360002
         SPACE 2                                                        11440002
         MACRO                                                          11520002
&NAME    DSGEN &X1,&X2,&X3,&X4,&X5,&X6,&X7,&X8,&X9,&X10,&X11,&X12,&X13,X11600002
               &X14,&X15,&X16,&X17,&X18,&X19,&X20,&X21,&X22,&X23,&X24, X11680002
               &X25,&X26,&X27,&X28,&X29,&X30,&X31,&X32                  11760002
.*                            THIS MACRO GENERATES ONE DSECT WORD       11840002
.*                                 FORMATTED FOR THE SUBJECT LOG RECORD 11920002
.*                                 EACH OPERAND HAS TWO SUB LISTS. THE  12000002
.*                                 FIRST IS THE NAME OF THE LOG ITEM    12080002
.*                                 WHILE THE SECOND IS THE # OF BITS TO 12160002
.*                                 ALLOCATE FOR THIS ITEM. ITEMS MUST   12240002
.*                                 BE DEFINED CONTIGUOUSLY WITHOUT GAPS 12320002
.*                                 UNUSED BIT GROUPS MUST BE GIVEN      12400002
.*                                 DUMMY NAMES. THE NAMES PROVIDED FOR  12480002
.*                                 THE LOG ITEMS MAY THEN BE USED IN    12560002
.*                                 THE CONVERSION MACRO INSTRUCTIONS.   12640002
         GBLC &ITEM(1000)                                               12720002
         GBLA &ITEMNBR,&BITS(1000),&SHIFT(1000)                         12800002
         LCLC  &SYMBOL                                                  12880002
         LCLA  &OP,&COUNT,&BYTE                                         12960002
.LOOP    ANOP                                                           13040002
&OP      SETA  &OP+1                                                    13120002
&ITEMNBR SETA  &ITEMNBR+1                                               13200002
&SYMBOL  SETC  '&SYSLIST(&OP,1)'                                        13280002
         AIF   ('&SYSLIST(&OP,2)' NE '').OK1                            13360002
         MNOTE *,'NULL BIT COUNT FIELD'                                 13440002
         MEXIT                                                          13520002
.OK1     ANOP                                                           13600002
         AIF   ('&SYMBOL' NE '').OK                                     13680002
         MNOTE 'LOG ITEM SYMBOL NOT PROVIDED'                           13760002
         AGO   .CNT                                                     13840002
.OK      ANOP                                                           13920002
         AIF   ('&SYMBOL'(1,1) EQ '''').CNT                *TEMP*       14000002
&SYMBOL  EQU   *+&BYTE                                                  14080002
&ITEM(&ITEMNBR)  SETC '&SYSLIST(&OP,1)'                                 14160002
&BITS(&ITEMNBR) SETA &SYSLIST(&OP,2)                                    14240002
&SHIFT(&ITEMNBR) SETA &COUNT-&BYTE*8                                    14320002
.CNT     ANOP                                                           14400002
&COUNT   SETA  &COUNT+&SYSLIST(&OP,2)                                   14480002
&BYTE    SETA  &COUNT/8                                                 14560002
         AIF (&OP LT N'&SYSLIST).LOOP                                   14640002
         AIF   (&COUNT NE 32).NOT32                                     14720002
&NAME    DS    4C                                                       14800002
         MEXIT                                                          14880002
.NOT32   AIF   (&COUNT NE 64).ERR                                       14960002
&NAME    DS    8C                                                       15040002
         MEXIT                                                          15120002
.ERR     MNOTE '**BIT COUNT FIELDS DO NOT TOTAL 32 OR 64**'             15200002
         MEND                                                           15280002
         MACRO                                                          15360002
         LINEND                                                         15440002
.*                            THIS MACRO IS USED ONLY BY THE LINE       15520002
.*                                 MACRO TO SET THE NUMBER OF ENTRIES   15600002
.*                                 ASSOCIATED WITH EACH LINE.           15680002
         GBLA  &NRENTS                                                  15760002
         GBLC &NRENTSX                                                  15840002
         ORG   &NRENTSX                                                 15920002
         DC    FL1'&NRENTS'                                             16000002
         ORG                                                            16080002
&NRENTS  SETA  0                                                        16160002
B&SYSNDX EQU   *                                                        16240002
&NRENTSX SETC  'B&SYSNDX'                                               16320002
         MEND                                                           16400002
         SPACE 2                                                        16480002
         EJECT                                                          16560002
*  LABEL MACRO     LABEL MACRO     LABEL MACRO     LABEL MACRO        * 16640002
         SPACE 2                                                        16720002
         MACRO                                                          16800002
&NAME    LABEL &LABEL1,&LABEL2,&LABEL3,&LABEL4,&LABEL5,&LABEL6,        C16880002
               &LABEL7,&LABEL8                                          16960002
.*                            THIS MACRO ALLOWS UP TO ACHT LABELS TO    17040002
.*                                 BE SPECIFIED FOR A GIVEN LINE. THE   17120002
.*                                 LABELS SHOULD BE ENCLOSED IN QUOTA-  17200002
.*                                 TION MARKS. THE COLUMN AND LINE END  17280002
.*                                 CONTROLS WILL BE INSERTED BY THE     17360002
.*                                 MACRO. OMITTED OPERANDS MEAN NO      17440002
.*                                 LABEL REQUIRED FOR RESPECTIVE        17520002
.*                                 COLUMN. THIS MACRO WILL ALSO ALERT   17600002
.*                                 THE PROGRAMMER TO EXACTLY WHERE THE  17680002
.*                                 TABLE MUST BE BROKEN IF NECESSARY    17760002
.*                                 TO AVOID EXCEEDING THE MAXIMUM LIMIT 17840002
         GBLC &LABELS(2000)                                             17920002
         GBLC  &LBL(100)                                                18000002
         GBLA  &LBLCTR(100)                                             18080002
         GBLA  &LABELNR                                                 18160002
         GBLA  &NRENTS,&LPTR                                            18240002
         LCLC  &MARGIN,&TACK                                            18320002
         LCLC  &TEXT                                                    18400002
         LCLA  &OP,&K,&START,&NRCHAR,&REMAIN                            18480002
&MARGIN  SETC  '*'                                                      18560002
         AIF   ('&NAME' EQ '').LOOPOUT                                  18640002
&LPTR    SETA  &LPTR+1                                                  18720002
&LBL(&LPTR) SETC '&NAME'                                                18800002
&LBLCTR(&LPTR) SETA &LABELNR+1                                          18880002
.LOOPOUT ANOP                                                           18960002
&OP      SETA  &OP+1                                                    19040002
&K       SETA  K'&SYSLIST(&OP)                                          19120002
         AIF (&K GE 2).NORM                                             19200002
&K       SETA  2                                                        19280002
.NORM    ANOP                                                           19360002
&START   SETA  2                                                        19440002
         AIF (&OP LT N'&SYSLIST).NOTLAST                                19520002
&MARGIN  SETC  '$'                                                      19600002
.NOTLAST ANOP                                                           19680002
&NRCHAR  SETA  8                                                        19760002
&TACK    SETC  ''                                                       19840002
.LOOPIN  ANOP                                                           19920002
&REMAIN  SETA  &K-&START                                                20000002
         AIF (&REMAIN GE 8).MORE                                        20080002
&TACK    SETC  '&MARGIN'                                                20160002
&NRCHAR  SETA  &REMAIN                                                  20240002
.MORE    ANOP                                                           20320002
&TEXT    SETC  ''                                                       20400002
         AIF (&REMAIN EQ 0).ENDTEXT                                     20480002
&TEXT    SETC  '&SYSLIST(&OP)'(&START,&NRCHAR)                          20560002
.ENDTEXT ANOP                                                           20640002
&LABELNR SETA  &LABELNR+1                                               20720002
&LABELS(&LABELNR) SETC '&TEXT'.'&TACK'                                  20800002
&START   SETA  &START+8                                                 20880002
         AIF ('&TACK' EQ '').LOOPIN                                     20960002
         AIF ('&TACK' EQ '*').LOOPOUT                                   21040002
         MEND                                                           21120002
         SPACE 2                                                        21200002
         MACRO                                                          21280002
         LSTART                                                         21360002
.*                            THIS MACRO IS ISSUED WHEN THE LABEL AREA  21440002
.*                                 OF THE TABLE IS TO BEGIN.            21520002
         GBLC &LABELS(2000)                                             21600002
         GBLA  &LABELNR                                                 21680002
         GBLC  &LBL(100)                                                21760002
         GBLA  &LBLCTR(100)                                             21840002
         LCLA  &NDX,&CTR                                                21920002
         LINEND                                                         22000002
&CTR     SETA  1                                                        22080002
.LOOP    ANOP                                                           22160002
&NDX     SETA  &NDX+1                                                   22240002
         AIF   (&LBLCTR(&CTR) NE &NDX).NOLBL                            22320002
&LBL(&CTR) DC  C'&LABELS(&NDX)'                                         22400002
&CTR     SETA  &CTR+1                                                   22480002
         AGO   .LOOPCTL                                                 22560002
.NOLBL   ANOP                                                           22640002
         DC    C'&LABELS(&NDX)'                                         22720002
.LOOPCTL AIF   (&NDX LT &LABELNR).LOOP                                  22800002
         MEND                                                           22880002
         SPACE 2                                                        22960002
*  BIN MACRO     BIN MACRO     BIN MACRO     BIN MACRO     BIN MACRO  * 23040002
         SPACE 2                                                        23120002
         MACRO                                                          23200002
         BIN   &LOGITEM,&SKIP$OR                                        23280002
.*                                 &LOGITEM - NAME OF ITEM IN LOG       23360002
.*                                      RECORD DSECT                    23440002
.*                                 &SKIP$OR - NBR OF SPACES TO SKIP ON  23520002
.*                                 MULTIPLE PRINT OR NBR OF SPACES      23600002
.*                                      TO BACK UP FROM COLUMN FOR      23680002
.*                                      START OF PRINTING. THE LETTER   23760002
.*                                      B PRECEEDS THE NUMBER (B5) IF   23840002
.*                                      THE LATTER IS DESIRED. OMISSION 23920002
.*                                      OF THIS OPERAND FORCES OPTION 2 24000002
.*                                      WITH BACKUP SPACING EQUAL TO    24080002
.*                                 THE NUMBER OF BITS IN THE ITEM       24160002
.*                                 DEFINITION (VIA MACRO 'DSGEN').      24240002
.*                            A LIMIT OF 15 BITS IS IMPOSED FOR THE     24320002
.*                                 TOTAL NUMBER OF BITS TO PRINT.       24400002
         GBLC &ITEM(1000)                                               24480002
         GBLA &ITEMNBR,&BITS(1000),&SHIFT(1000),&NRENTS                 24560002
         GBLC  &DSECT                                                   24640002
         LCLB  &B                                                       24720002
         LCLA  &IBITS,&NDX,&ISHIFT,&K                                   24800002
         LCLA  &TEMP,&T                                                 24880002
         LCLC  &S                                                       24960002
.LOOP    ANOP                                                           25040002
&NDX     SETA  &NDX+1                                                   25120002
         AIF   ('&ITEM(&NDX)' EQ '&LOGITEM').FOUND                      25200002
         AIF   (&NDX LT &ITEMNBR).LOOP                                  25280002
         MNOTE *,'YOU BLEW IT'                                          25360002
         ROUTINE DUM,SKIPPER                                            25440002
         MEXIT                                                          25520002
.FOUND   ANOP                                                           25600002
&ISHIFT  SETA  &SHIFT(&NDX)                                             25680002
&IBITS   SETA  &BITS(&NDX)                                              25760002
&T       SETA  &IBITS-1                                                 25840002
&B       SETB  0                                                        25920002
         AIF   ('&SKIP$OR' EQ '').BACKUP                                26000002
&K       SETA  K'&SKIP$OR                                               26080002
&B       SETB  ('&SKIP$OR'(1,1) EQ 'B')                                 26160002
&S       SETC  '&SKIP$OR'(&B+1,&K-&B)                                   26240002
&T       SETA  &S                                                       26320002
.BACKUP  ANOP                                                           26400002
&NRENTS  SETA  &NRENTS+1                                                26480002
&TEMP    SETA  &ISHIFT                                                  26560002
A&SYSNDX DC    AL.12(&LOGITEM-&DSECT),XL.4'&TEMP'                       26640002
         AIF (&IBITS EQ 1 AND &B EQ 0).OUT                              26720002
         ORG   A&SYSNDX                                                 26800002
&B       SETB  1                                                        26880002
         DC    AL.12(&LOGITEM-&DSECT),XL.4'C'                           26960002
         DC    BL.1'&B',AL.7(&T),AL.4(&IBITS),FL.4'&ISHIFT'             27040002
.OUT     ANOP                                                           27120002
         MEND                                                           27200002
         EJECT                                                          27280002
*  HEX MACRO     HEX MACRO     HEX MACRO    HEXN MACRO     HEX MACRO  * 27360002
         SPACE 2                                                        27440002
         MACRO                                                          27520002
         HEX   &LOGITEM,&SKIP$OR,&BYTES                                 27600002
.*                            THIS MACRO FACILITATES GENERATION OF THE  27680002
.*                                 TABLE ENTRIES SPECIFYING HEX TYPE    27760002
.*                                 CONVERSIONS.                         27840002
.*                            &LOGITEM - NAME OF DATA ITEM TO BE        27920002
.*                                 CONVERTED                            28000002
.*                            &SKIP$OR - NUMBER OF SPACES TO SKIP ON    28080002
.*                                 MULTIPLE PRINT OR NBR OF SPACES TO   28160002
.*                                 BACK UP FROM COLUMN FOR START OF     28240002
.*                                 PRINTING. THE LETTER B PRECEEDS THE  28320002
.*                                 NUMBER (B8) IF THE LATTER OPTION IS  28400002
.*                                 DESIRED. OMISSION OF THIS OPERAND    28480002
.*                                 FORCES OPTION 2 WITH BACKUP SPACING  28560002
.*                                 EQUAL TO THE NUMBER OF BYTES SPECI-  28640002
.*                                 FIED BY THE NEXT OPERAND (TWICE THIS 28720002
.*                                 NUMBER IF SUFFIX IS EXPLICITLY OR    28800002
.*                                 IMPLICITLY B).                       28880002
.*                            &BYTES - NUMBER OF TOTAL INPUT BYTES TO   28960002
.*                                 PROCESS. THIS NUMBER IS SUFFIXED     29040002
.*                                 WITH AN L,R, OR B TO STIPULATE       29120002
.*                                 PRINTING OF THE LEFT HALF, RIGHT     29200002
.*                                 HALF, OR BOTH HALVES OF THE BYTE     29280002
.*                                 RESPECTIVELY. OMISSION OF THIS       29360002
.*                                 OPERAND DEFAULTS TO B WITH THE NUM-  29440002
.*                                 BER OF BYTES EQUAL TO THE ITEM LNGTH 29520002
.*                            A NEW ENTRY IS GENERATED ONLY WHEN NECES- 29600002