*  LINE MACRO     LINE MACRO     LINE MACRO     LINE MACRO            * 00100002
         MACRO                                                          00200002
&NAME    LINE  &DATA,&LABEL,&SKIP=                                      00300002
.*                            THIS MACRO ESTABLISHES THE MARGINS OR     00400002
.*                                 COLUMN SETTINGS FOR EACH LINE. IT    00500002
.*                                 GENERATES NECESSARY CARRIAGE CONTROL 00600002
.*                                 ENTRIES. LASTLY IT DETERMINES THE    00700002
.*                                 NUMBER OF ENTRIES ASSOCIATED WITH    00800002
.*                                 THE PREVIOUS LINE AND STORES THAT #  00900002
.*                                 INTO THE APPROPRIATE BYTE.           01000002
.*                            &DATA(1) - CHARACTER POSITION TO BEGIN    01100002
.*                                 DATA.                                01200002
.*                            &DATA(2) - # OF SPACES BETWEEN SUCCESSIVE 01300002
.*                                 DATA COLUMN STARTING CHARACTERS.     01400002
.*                            &LABEL(1) - CHAR. POS. TO BEGIN LABELS.   01500002
.*                            &LABEL(2) - # SPACES BETWEEN LINE'S LABEL 01600002
.*                                 STARTING CHARACTERS.                 01700002
.*                            &SKIP= - # OF LINES TO ADVANCE CARRIAGE   01800002
.*                                 TO BEGIN NEXT PRINTED LINE.          01900002
.*                            NEW ENTRIES ARE GENERATED ONLY WHEN       02000002
.*                                 NECESSARY. OMISSION OF ITEMS MEANS   02100002
.*                                 THEY HAVE NOT CHANGED SINCE PREVIOUS 02200002
.*                                 SETTINGS. A LINE MACRO IS REQUIRED   02300002
.*                                 FOR EACH PRINTED LINE. IF NO SETTING 02400002
.*                                 CHANGES ARE REQUIRED ALL OPERANDS    02500002
.*                                 ARE OMITTED IN WHICH CASE ONLY THE   02600002
.*                                 # OF ENTRIES FOR THE PREVIOUS LINE   02700002
.*                                 IS COMPUTED. THIS MACRO MUST BE THE  02800002
.*                                 FIRST MACRO INSTRUCTION ISSUED FOR   02900002
.*                                 THE SUBJECT LINE                     03000002
         GBLA  &DB,&DT,&LB,&LT,&NRENTS                                  03100002
         GBLA  &LASTCC,&INITIAL                                         03200002
         GBLC  &NRENTSX                                                 03300002
         GBLC  &CARRCON                                                 03400002
         GBLB  &TEST                                                    03500002
         LCLA  &S                                                       03600002
&NAME    DS    0C                                                       03700002
         AIF   (&INITIAL EQ 0).FIRSTLN                                  03800002
         LINEND                                                         03900002
         AGO   .NTFIRST                                                 04000002
.FIRSTLN ANOP                                                           04100002
&NRENTSX SETC  'N&SYSNDX'                                               04200002
&INITIAL SETA  1                                                        04300002
N&SYSNDX EQU   *                                                        04400002
.NTFIRST ANOP                                                           04500002
         DC    AL1(0)                                                   04600002
         AIF   ('&DATA(1)' EQ '').CKDTABS                               04700002
         AIF   (&DATA(1) EQ &DB).CKDTABS                                04800002
&DB      SETA  &DATA(1)                                                 04900002
         AGO   .AA                                                      05000002
.CKDTABS AIF   ('&DATA(2)' EQ '').NCDATA                                05100002
         AIF   (&DATA(2) EQ &DT).NCDATA                                 05200002
         AGO   .CC                                                      05300002
.AA      AIF   ('&DATA(2)' EQ '').BB                                    05400002
         AIF   (&DATA(2) EQ &DT).BB                                     05500002
.CC      ANOP                                                           05600002
&DT      SETA  &DATA(2)                                                 05700002
.BB      DC    XL2'FFFE'                                                05800002
         DC    FL1'&DB'                                                 05900002
         DC    FL1'&DT'                                                 06000002
&NRENTS  SETA  &NRENTS+1                                                06100002
.NCDATA  ANOP                                                           06200002
         AIF   ('&LABEL(1)' EQ '').CKLTABS                              06300002
         AIF   (&LABEL(1) EQ &LB).CKLTABS                               06400002
&LB      SETA  &LABEL(1)                                                06500002
         AGO   .AAA                                                     06600002
.CKLTABS AIF   ('&LABEL(2)' EQ '').NCLABEL                              06700002
         AIF   (&LABEL(2) EQ &LT).NCLABEL                               06800002
         AGO   .CCC                                                     06900002
.AAA     AIF   ('&LABEL(2)' EQ '').BBB                                  07000002
         AIF   (&LABEL(2) EQ &LT).BBB                                   07100002
.CCC     ANOP                                                           07200002
&LT      SETA  &LABEL(2)                                                07300002
.BBB     DC    XL2'FFFF'                                                07400002
         DC    FL1'&LB'                                                 07500002
         DC    FL1'&LT'                                                 07600002
&NRENTS  SETA  &NRENTS+1                                                07700002
.NCLABEL ANOP                                                           07800002
         AIF   ('&SKIP' NE '').CONT                                     07900002
         AIF   (&TEST EQ 0).NOCHANG                                     08000002
&S       SETA  &LASTCC                                                  08100002
         AGO   .DEFAULT                                                 08200002
.CONT    ANOP                                                           08300002
         AIF   (&TEST EQ 0).AB                                          08400002
&S       SETA  &SKIP                                                    08500002
.DEFAULT ANOP                                                           08600002
         ORG   &CARRCON+3                                               08700002
         DC    AL.3(0),AL.2(&S),AL.3(1)                                 08800002
         ORG                                                            08900002
&LASTCC  SETA  &S                                                       09000002
&TEST    SETB  0                                                        09100002
         AGO   .DD                                                      09200002
.AB      AIF   (&SKIP EQ &LASTCC).NOCHANG                               09300002
A&SYSNDX DC    XL2'FFFB'                                                09400002
         DC    AL.3(0),AL.2(&SKIP),AL.3(1)                              09500002
         DC    FL1'9'                                                   09600002
&LASTCC  SETA  &SKIP                                                    09700002
&TEST    SETB  1                                                        09800002
&CARRCON SETC  'A&SYSNDX'                                               09900002
&NRENTS  SETA  &NRENTS+1                                                10000002
.DD      ANOP                                                           10100002
.NOCHANG ANOP                                                           10200002
         MEND                                                           10300002
         EJECT                                                          10400002
         SPACE 2                                                        10500002
*  ROUTINE MACRO     ROUTINE MACRO     ROUTINE MACRO     ROUTINE MACRO* 10600002
         MACRO                                                          10700002
&NAME    ROUTINE &LOGITEM,&RNAME                                        10800002
         GBLC  &DSECT,&CSECT                                            10900002
         GBLC  &ITEM(1000)                                              11000002
         GBLA  &SHIFT(1000),&ITEMNBR                                    11100002
         GBLA  &NRENTS                                                  11200002
         LCLA  &ISHIFT,&NDX                                             11300002
.LOOP    ANOP                                                           11400002
&NDX     SETA  &NDX+1                                                   11500002
         AIF   ('&ITEM(&NDX)' EQ '&LOGITEM').FOUND                      11600002
         AIF   (&NDX LT &ITEMNBR).LOOP                                  11700002
         MNOTE *,'LOG ITEM NOT DEFINED'                                 11800002
         MEXIT                                                          11900002
.FOUND   ANOP                                                           12000002
&ISHIFT  SETA  &SHIFT(&NDX)                                             12100002
&NAME    DC    AL.12(&LOGITEM-&DSECT),XL.4'D'                           12200002
         DC    AL.4(&ISHIFT),AL.12(&RNAME-&CSECT)                       12300002
&NRENTS  SETA  &NRENTS+1                                                12400002
         MEND                                                           12500002
*  DSGEN MACRO     DSGEN MACRO     DSGEN MACRO     DSGEN MACRO        * 12600002
         SPACE 2                                                        12700002
         MACRO                                                          12800002
&NAME    DSGEN &X1,&X2,&X3,&X4,&X5,&X6,&X7,&X8,&X9,&X10,&X11,&X12,&X13,X12900002
               &X14,&X15,&X16,&X17,&X18,&X19,&X20,&X21,&X22,&X23,&X24, X13000002
               &X25,&X26,&X27,&X28,&X29,&X30,&X31,&X32                  13100002
.*                            THIS MACRO GENERATES ONE DSECT WORD       13200002
.*                                 FORMATTED FOR THE SUBJECT LOG RECORD 13300002
.*                                 EACH OPERAND HAS TWO SUB LISTS. THE  13400002
.*                                 FIRST IS THE NAME OF THE LOG ITEM    13500002
.*                                 WHILE THE SECOND IS THE # OF BITS TO 13600002
.*                                 ALLOCATE FOR THIS ITEM. ITEMS MUST   13700002
.*                                 BE DEFINED CONTIGUOUSLY WITHOUT GAPS 13800002
.*                                 UNUSED BIT GROUPS MUST BE GIVEN      13900002
.*                                 DUMMY NAMES. THE NAMES PROVIDED FOR  14000002
.*                                 THE LOG ITEMS MAY THEN BE USED IN    14100002
.*                                 THE CONVERSION MACRO INSTRUCTIONS.   14200002
         GBLC &ITEM(1000)                                               14300002
         GBLA &ITEMNBR,&BITS(1000),&SHIFT(1000)                         14400002
         LCLC  &SYMBOL                                                  14500002
         LCLA  &OP,&COUNT,&BYTE                                         14600002
.LOOP    ANOP                                                           14700002
&OP      SETA  &OP+1                                                    14800002
&ITEMNBR SETA  &ITEMNBR+1                                               14900002
&SYMBOL  SETC  '&SYSLIST(&OP,1)'                                        15000002
         AIF   ('&SYSLIST(&OP,2)' NE '').OK1                            15100002
         MNOTE *,'NULL BIT COUNT FIELD'                                 15200002
         MEXIT                                                          15300002
.OK1     ANOP                                                           15400002
         AIF   ('&SYMBOL' NE '').OK                                     15500002
         MNOTE 'LOG ITEM SYMBOL NOT PROVIDED'                           15600002
         AGO   .CNT                                                     15700002
.OK      ANOP                                                           15800002
         AIF   ('&SYMBOL'(1,1) EQ '''').CNT                *TEMP*       15900002
&SYMBOL  EQU   *+&BYTE                                                  16000002
&ITEM(&ITEMNBR)  SETC '&SYSLIST(&OP,1)'                                 16100002
&BITS(&ITEMNBR) SETA &SYSLIST(&OP,2)                                    16200002
&SHIFT(&ITEMNBR) SETA &COUNT-&BYTE*8                                    16300002
.CNT     ANOP                                                           16400002
&COUNT   SETA  &COUNT+&SYSLIST(&OP,2)                                   16500002
&BYTE    SETA  &COUNT/8                                                 16600002
         AIF (&OP LT N'&SYSLIST).LOOP                                   16700002
         AIF   (&COUNT NE 32).NOT32                                     16800002
&NAME    DS    4C                                                       16900002
         MEXIT                                                          17000002
.NOT32   AIF   (&COUNT NE 64).ERR                                       17100002
&NAME    DS    8C                                                       17200002
         MEXIT                                                          17300002
.ERR     MNOTE '**BIT COUNT FIELDS DO NOT TOTAL 32 OR 64**'             17400002
         MEND                                                           17500002
         MACRO                                                          17600002
         LINEND                                                         17700002
.*                            THIS MACRO IS USED ONLY BY THE LINE       17800002
.*                                 MACRO TO SET THE NUMBER OF ENTRIES   17900002
.*                                 ASSOCIATED WITH EACH LINE.           18000002
         GBLA  &NRENTS                                                  18100002
         GBLC &NRENTSX                                                  18200002
         ORG   &NRENTSX                                                 18300002
         DC    FL1'&NRENTS'                                             18400002
         ORG                                                            18500002
&NRENTS  SETA  0                                                        18600002
B&SYSNDX EQU   *                                                        18700002
&NRENTSX SETC  'B&SYSNDX'                                               18800002
         MEND                                                           18900002
         SPACE 2                                                        19000002
         EJECT                                                          19100002
*  LABEL MACRO     LABEL MACRO     LABEL MACRO     LABEL MACRO        * 19200002
         SPACE 2                                                        19300002
         MACRO                                                          19400002
&NAME    LABEL &LABEL1,&LABEL2,&LABEL3,&LABEL4,&LABEL5,&LABEL6,        C19500002
               &LABEL7,&LABEL8                                          19600002
.*                            THIS MACRO ALLOWS UP TO ACHT LABELS TO    19700002
.*                                 BE SPECIFIED FOR A GIVEN LINE. THE   19800002
.*                                 LABELS SHOULD BE ENCLOSED IN QUOTA-  19900002
.*                                 TION MARKS. THE COLUMN AND LINE END  20000002
.*                                 CONTROLS WILL BE INSERTED BY THE     20100002
.*                                 MACRO. OMITTED OPERANDS MEAN NO      20200002
.*                                 LABEL REQUIRED FOR RESPECTIVE        20300002
.*                                 COLUMN. THIS MACRO WILL ALSO ALERT   20400002
.*                                 THE PROGRAMMER TO EXACTLY WHERE THE  20500002
.*                                 TABLE MUST BE BROKEN IF NECESSARY    20600002
.*                                 TO AVOID EXCEEDING THE MAXIMUM LIMIT 20700002
         GBLC &LABELS(2000)                                             20800002
         GBLC  &LBL(100)                                                20900002
         GBLA  &LBLCTR(100)                                             21000002
         GBLA  &LABELNR                                                 21100002
         GBLA  &NRENTS,&LPTR                                            21200002
         LCLC  &MARGIN,&TACK                                            21300002
         LCLC  &TEXT                                                    21400002
         LCLA  &OP,&K,&START,&NRCHAR,&REMAIN                            21500002
&MARGIN  SETC  '*'                                                      21600002
         AIF   ('&NAME' EQ '').LOOPOUT                                  21700002
&LPTR    SETA  &LPTR+1                                                  21800002
&LBL(&LPTR) SETC '&NAME'                                                21900002
&LBLCTR(&LPTR) SETA &LABELNR+1                                          22000002
.LOOPOUT ANOP                                                           22100002
&OP      SETA  &OP+1                                                    22200002
&K       SETA  K'&SYSLIST(&OP)                                          22300002
         AIF (&K GE 2).NORM                                             22400002
&K       SETA  2                                                        22500002
.NORM    ANOP                                                           22600002
&START   SETA  2                                                        22700002
         AIF (&OP LT N'&SYSLIST).NOTLAST                                22800002
&MARGIN  SETC  '$'                                                      22900002
.NOTLAST ANOP                                                           23000002
&NRCHAR  SETA  8                                                        23100002
&TACK    SETC  ''                                                       23200002
.LOOPIN  ANOP                                                           23300002
&REMAIN  SETA  &K-&START                                                23400002
         AIF (&REMAIN GE 8).MORE                                        23500002
&TACK    SETC  '&MARGIN'                                                23600002
&NRCHAR  SETA  &REMAIN                                                  23700002
.MORE    ANOP                                                           23800002
&TEXT    SETC  ''                                                       23900002
         AIF (&REMAIN EQ 0).ENDTEXT                                     24000002
&TEXT    SETC  '&SYSLIST(&OP)'(&START,&NRCHAR)                          24100002
.ENDTEXT ANOP                                                           24200002
&LABELNR SETA  &LABELNR+1                                               24300002
&LABELS(&LABELNR) SETC '&TEXT'.'&TACK'                                  24400002
&START   SETA  &START+8                                                 24500002
         AIF ('&TACK' EQ '').LOOPIN                                     24600002
         AIF ('&TACK' EQ '*').LOOPOUT                                   24700002
         MEND                                                           24800002
         SPACE 2                                                        24900002
         MACRO                                                          25000002
         LSTART                                                         25100002
.*                            THIS MACRO IS ISSUED WHEN THE LABEL AREA  25200002
.*                                 OF THE TABLE IS TO BEGIN.            25300002
         GBLC &LABELS(2000)                                             25400002
         GBLA  &LABELNR                                                 25500002
         GBLC  &LBL(100)                                                25600002
         GBLA  &LBLCTR(100)                                             25700002
         LCLA  &NDX,&CTR                                                25800002
         LINEND                                                         25900002
&CTR     SETA  1                                                        26000002
.LOOP    ANOP                                                           26100002
&NDX     SETA  &NDX+1                                                   26200002
         AIF   (&LBLCTR(&CTR) NE &NDX).NOLBL                            26300002
&LBL(&CTR) DC  C'&LABELS(&NDX)'                                         26400002
&CTR     SETA  &CTR+1                                                   26500002
         AGO   .LOOPCTL                                                 26600002
.NOLBL   ANOP                                                           26700002
         DC    C'&LABELS(&NDX)'                                         26800002
.LOOPCTL AIF   (&NDX LT &LABELNR).LOOP                                  26900002
         MEND                                                           27000002
         SPACE 2                                                        27100002
*  BIN MACRO     BIN MACRO     BIN MACRO     BIN MACRO     BIN MACRO  * 27200002
         SPACE 2                                                        27300002
         MACRO                                                          27400002
         BIN   &LOGITEM,&SKIP$OR                                        27500002
.*                                 &LOGITEM - NAME OF ITEM IN LOG       27600002
.*                                      RECORD DSECT                    27700002
.*                                 &SKIP$OR - NBR OF SPACES TO SKIP ON  27800002
.*                                 MULTIPLE PRINT OR NBR OF SPACES      27900002
.*                                      TO BACK UP FROM COLUMN FOR      28000002
.*                                      START OF PRINTING. THE LETTER   28100002
.*                                      B PRECEEDS THE NUMBER (B5) IF   28200002
.*                                      THE LATTER IS DESIRED. OMISSION 28300002
.*                                      OF THIS OPERAND FORCES OPTION 2 28400002
.*                                      WITH BACKUP SPACING EQUAL TO    28500002
.*                                 THE NUMBER OF BITS IN THE ITEM       28600002
.*                                 DEFINITION (VIA MACRO 'DSGEN').      28700002
.*                            A LIMIT OF 15 BITS IS IMPOSED FOR THE     28800002
.*                                 TOTAL NUMBER OF BITS TO PRINT.       28900002
         GBLC &ITEM(1000)                                               29000002
         GBLA &ITEMNBR,&BITS(1000),&SHIFT(1000),&NRENTS                 29100002
         GBLC  &DSECT                                                   29200002
         LCLB  &B                                                       29300002
         LCLA  &IBITS,&NDX,&ISHIFT,&K                                   29400002
         LCLA  &TEMP,&T                                                 29500002
         LCLC  &S                                                       29600002
.LOOP    ANOP                                                           29700002
&NDX     SETA  &NDX+1                                                   29800002
         AIF   ('&ITEM(&NDX)' EQ '&LOGITEM').FOUND                      29900002
         AIF   (&NDX LT &ITEMNBR).LOOP                                  30000002
         MNOTE *,'YOU BLEW IT'                                          30100002
         ROUTINE DUM,SKIPPER                                            30200002
         MEXIT                                                          30300002
.FOUND   ANOP                                                           30400002
&ISHIFT  SETA  &SHIFT(&NDX)                                             30500002
&IBITS   SETA  &BITS(&NDX)                                              30600002
&T       SETA  &IBITS-1                                                 30700002
&B       SETB  0                                                        30800002
         AIF   ('&SKIP$OR' EQ '').BACKUP                                30900002
&K       SETA  K'&SKIP$OR                                               31000002
&B       SETB  ('&SKIP$OR'(1,1) EQ 'B')                                 31100002
&S       SETC  '&SKIP$OR'(&B+1,&K-&B)                                   31200002
&T       SETA  &S                                                       31300002
.BACKUP  ANOP                                                           31400002
&NRENTS  SETA  &NRENTS+1                                                31500002
&TEMP    SETA  &ISHIFT                                                  31600002
A&SYSNDX DC    AL.12(&LOGITEM-&DSECT),XL.4'&TEMP'                       31700002
         AIF (&IBITS EQ 1 AND &B EQ 0).OUT                              31800002
         ORG   A&SYSNDX                                                 31900002
&B       SETB  1                                                        32000002
         DC    AL.12(&LOGITEM-&DSECT),XL.4'C'                           32100002
         DC    BL.1'&B',AL.7(&T),AL.4(&IBITS),FL.4'&ISHIFT'             32200002
.OUT     ANOP                                                           32300002
         MEND                                                           32400002
         EJECT                                                          32500002
*  HEX MACRO     HEX MACRO     HEX MACRO    HEXN MACRO     HEX MACRO  * 32600002
         SPACE 2                                                        32700002
         MACRO                                                          32800002
         HEX   &LOGITEM,&SKIP$OR,&BYTES                                 32900002
.*                            THIS MACRO FACILITATES GENERATION OF THE  33000002
.*                                 TABLE ENTRIES SPECIFYING HEX TYPE    33100002
.*                                 CONVERSIONS.                         33200002
.*                            &LOGITEM - NAME OF DATA ITEM TO BE        33300002
.*                                 CONVERTED                            33400002
.*                            &SKIP$OR - NUMBER OF SPACES TO SKIP ON    33500002
.*                                 MULTIPLE PRINT OR NBR OF SPACES TO   33600002
.*                                 BACK UP FROM COLUMN FOR START OF     33700002
.*                                 PRINTING. THE LETTER B PRECEEDS THE  33800002
.*                                 NUMBER (B8) IF THE LATTER OPTION IS  33900002
.*                                 DESIRED. OMISSION OF THIS OPERAND    34000002
.*                                 FORCES OPTION 2 WITH BACKUP SPACING  34100002
.*                                 EQUAL TO THE NUMBER OF BYTES SPECI-  34200002
.*                                 FIED BY THE NEXT OPERAND (TWICE THIS 34300002
.*                                 NUMBER IF SUFFIX IS EXPLICITLY OR    34400002
.*                                 IMPLICITLY B).                       34500002
.*                            &BYTES - NUMBER OF TOTAL INPUT BYTES TO   34600002
.*                                 PROCESS. THIS NUMBER IS SUFFIXED     34700002
.*                                 WITH AN L,R, OR B TO STIPULATE       34800002
.*                                 PRINTING OF THE LEFT HALF, RIGHT     34900002
.*                                 HALF, OR BOTH HALVES OF THE BYTE     35000002
.*                                 RESPECTIVELY. OMISSION OF THIS       35100002
.*                                 OPERAND DEFAULTS TO B WITH THE NUM-  35200002
.*                                 BER OF BYTES EQUAL TO THE ITEM LNGTH 35300002
.*                            A NEW ENTRY IS GENERATED ONLY WHEN NECES- 35400002
.*                                 SARY. THIS MACRO MUST BE THE FIRST   35500002
.*                                 MACRO INSTRUCTION ISSUED FOR THE     35600002
.*                                 SUBJECT LINE(S).                     35700002
         GBLC &ITEM(1000),&DSECT                                        35800002
         GBLA &ITEMNBR,&BITS(1000),&SHIFT(1000),&NRENTS                 35900002
         LCLB  &B                                                       36000002
         LCLA  &IBITS,&NDX,&ISHIFT,&K,&T,&CODE,&BYTESP                  36100002
         LCLC  &S,&LETTER                                               36200002
.LOOP    ANOP                                                           36300002
&NDX     SETA  &NDX+1                                                   36400002
         AIF   ('&ITEM(&NDX)' EQ '&LOGITEM').FOUND                      36500002
         AIF   (&NDX LT &ITEMNBR).LOOP                                  36600002
         MNOTE *,'LOG ITEM NOT DEFINED'                                 36700002
         MEXIT                                                          36800002
.FOUND   ANOP                                                           36900002
&ISHIFT  SETA  &SHIFT(&NDX)                                             37000002