         TITLE 'IFCEXXX1 - EDIT TABLE - LINKNAME=IFCE2540, ALIASES=IFCEC00080002
               1442,IFCE2501,IFCE2520,IFCE2495'                         00160002
         TITLE 'IFCEXXX1 - EDIT TABLE - LINKNAME=IFCE2540, ALIASES=IFCEC00240002
               1442,IFCE2501,IFCE2520,IFCE2495'                         00320002
         SPACE 2                                                        00400002
*  LINE MACRO     LINE MACRO     LINE MACRO     LINE MACRO            * 00480002
         MACRO                                                          00560002
&NAME    LINE  &DATA,&LABEL,&SKIP=                                      00640002
.*                            THIS MACRO ESTABLISHES THE MARGINS OR     00720002
.*                                 COLUMN SETTINGS FOR EACH LINE. IT    00800002
.*                                 GENERATES NECESSARY CARRIAGE CONTROL 00880002
.*                                 ENTRIES. LASTLY IT DETERMINES THE    00960002
.*                                 NUMBER OF ENTRIES ASSOCIATED WITH    01040002
.*                                 THE PREVIOUS LINE AND STORES THAT #  01120002
.*                                 INTO THE APPROPRIATE BYTE.           01200002
.*                                 &DATA(1) - CHARACTER POSITION TO     01280002
.*                                 BEGIN DATA.                          01360002
.*                                                                      01440002
.*                                 &DATA(2) - # OF SPACES BETWEEN       01520002
.*                                 SUCCESSIVE DATA COLUMN STARTING      01600002
.*                                 CHARACTERS.                          01680002
.*                                                                      01760002
.*                                 &LABEL(1) - CHARACTER POSITION       01840002
.*                                 TO BEGIN LABELS.                     01920002
.*                                                                      02000002
.*                                 &LABEL(2) - # OF SPACES BETWEEN      02080002
.*                                 LINE'S LABEL STARTING CHARACTERS.    02160002
.*                                                                      02240002
.*                                 &SKIP= - # OF LINES TO ADVANCE       02320002
.*                                 CARRIAGE TO BEGIN NEXT PRINTED LINE. 02400002
.*                                                                      02480002
.*                                 NEW ENTRIES ARE GENERATED ONLY WHEN  02560002
.*                                 NECESSARY. OMISSION OF ITEMS MEANS   02640002
.*                                 THEY HAVE NOT CHANGED SINCE PREVIOUS 02720002
.*                                 SETTINGS. A LINE MACRO IS REQUIRED   02800002
.*                                 FOR EACH PRINTED LINE. IF NO SETTING 02880002
.*                                 CHANGES ARE REQUIRED ALL OPERANDS    02960002
.*                                 ARE OMITTED IN WHICH CASE ONLY THE   03040002
.*                                 # OF ENTRIES FOR THE PREVIOUS LINE   03120002
.*                                 FIRST MACRO INSTRUCTION ISSUED FOR   03200002
.*                                 THE SUBJECT LINE.                    03280002
         GBLA  &DB,&DT,&LB,&LT,&NRENTS                                  03360002
         GBLA  &LASTCC,&INITIAL                                         03440002
         GBLC  &NRENTSX                                                 03520002
         GBLC  &CARRCON                                                 03600002
         GBLB  &TEST                                                    03680002
         LCLA  &S                                                       03760002
&NAME    DS    0C                                                       03840002
         AIF   (&INITIAL EQ 0).FIRSTLN                                  03920002
         LINEND                                                         04000002
         AGO   .NTFIRST                                                 04080002
.FIRSTLN ANOP                                                           04160002
&NRENTSX SETC  'N&SYSNDX'                                               04240002
&INITIAL SETA  1                                                        04320002
&LASTCC  SETA  1                                                        04400002
N&SYSNDX EQU   *                                                        04480002
.NTFIRST ANOP                                                           04560002
         DC    AL1(0)                                                   04640002
         AIF   ('&DATA(1)' EQ '').CKDTABS                               04720002
         AIF   ('&DATA'(1,1) NE '(').SLABEL                             04800002
         AIF   (&DATA(1) EQ &DB).CKDTABS                                04880002
&DB      SETA  &DATA(1)                                                 04960002
         AGO   .AA                                                      05040002
.CKDTABS AIF   ('&DATA(2)' EQ '').NCDATA                                05120002
         AIF   (&DATA(2) EQ &DT).NCDATA                                 05200002
         AGO   .CC                                                      05280002
.AA      AIF   ('&DATA(2)' EQ '').BB                                    05360002
         AIF   (&DATA(2) EQ &DT).BB                                     05440002
.CC      ANOP                                                           05520002
&DT      SETA  &DATA(2)                                                 05600002
.BB      DC    XL2'FFFE'                                                05680002
         DC    FL1'&DB'                                                 05760002
         DC    FL1'&DT'                                                 05840002
&NRENTS  SETA  &NRENTS+1                                                05920002
.NCDATA  ANOP                                                           06000002
         AIF   ('&LABEL(1)' EQ '').CKLTABS                              06080002
         AIF   ('&LABEL'(1,1) NE '(').SLABEL                            06160002
         AIF   (&LABEL(1) EQ &LB).CKLTABS                               06240002
&LB      SETA  &LABEL(1)                                                06320002
         AGO   .AAA                                                     06400002
.CKLTABS AIF   ('&LABEL(2)' EQ '').NCLABEL                              06480002
         AIF   (&LABEL(2) EQ &LT).NCLABEL                               06560002
         AGO   .CCC                                                     06640002
.AAA     AIF   ('&LABEL(2)' EQ '').BBB                                  06720002
         AIF   (&LABEL(2) EQ &LT).BBB                                   06800002
.CCC     ANOP                                                           06880002
&LT      SETA  &LABEL(2)                                                06960002
.BBB     DC    XL2'FFFF'                                                07040002
         DC    FL1'&LB'                                                 07120002
         DC    FL1'&LT'                                                 07200002
&NRENTS  SETA  &NRENTS+1                                                07280002
.NCLABEL ANOP                                                           07360002
         AIF   ('&SKIP' EQ 'E').EJECT                                   07440002
         AIF   ('&SKIP' EQ '').TESTOFF                                  07520002
.CONT    ANOP                                                           07600002
         AIF   (&TEST EQ 0).AB                                          07680002
         AIF   (&SKIP EQ &LASTCC).TESTOFF                               07760002
&S       SETA  &SKIP                                                    07840002
         ORG   &CARRCON+3                                               07920002
         DC    AL.3(0),AL.2(&S),AL.3(1)                                 08000002
         ORG                                                            08080002
&LASTCC  SETA  &S                                                       08160002
.SLABEL  ANOP                                                           08240002
.TESTOFF ANOP                                                           08320002
&TEST    SETB  0                                                        08400002
         AGO   .DD                                                      08480002
.EJECT   DC    XL2'FFFB'                                                08560002
&NRENTS  SETA  &NRENTS+1                                                08640002
         DC    X'8B'              SKIP TO CHANNEL 1                     08720002
         DC    AL.3(0),AL.2(&LASTCC),AL.3(1)                            08800002
&TEST    SETB  1                                                        08880002
         AGO   .DD                                                      08960002
.AB      AIF   (&SKIP EQ &LASTCC).NOCHANG                               09040002
A&SYSNDX DC    XL2'FFFB'                                                09120002
         DC    AL.3(0),AL.2(&SKIP),AL.3(1)                              09200002
         DC    AL.3(0),AL.2(&SKIP),AL.3(1)                              09280002
&LASTCC  SETA  &SKIP                                                    09360002
&TEST    SETB  1                                                        09440002
&CARRCON SETC  'A&SYSNDX'                                               09520002
&NRENTS  SETA  &NRENTS+1                                                09600002
.DD      ANOP                                                           09680002
.NOCHANG ANOP                                                           09760002
         MEND                                                           09840002
         EJECT                                                          09920002
         SPACE 2                                                        10000002
*  ROUTINE MACRO     ROUTINE MACRO     ROUTINE MACRO     ROUTINE MACRO* 10080002
         MACRO                                                          10160002
&NAME    ROUTINE &LOGITEM,&RNAME                                        10240002
         GBLC  &DSECT,&CSECT                                            10320002
         GBLC  &ITEM(1000)                                              10400002
         GBLA  &SHIFT(1000),&ITEMNBR                                    10480002
         GBLA  &NRENTS                                                  10560002
         LCLA  &ISHIFT,&NDX                                             10640002
.LOOP    ANOP                                                           10720002
&NDX     SETA  &NDX+1                                                   10800002
         AIF   ('&ITEM(&NDX)' EQ '&LOGITEM').FOUND                      10880002
         AIF   (&NDX LT &ITEMNBR).LOOP                                  10960002
         MNOTE *,'LOG ITEM NOT DEFINED'                                 11040002
         MEXIT                                                          11120002
.FOUND   ANOP                                                           11200002
&ISHIFT  SETA  &SHIFT(&NDX)                                             11280002
&NAME    DC    AL.12(&LOGITEM-&DSECT),XL.4'D'                           11360002
         DC    AL.4(&ISHIFT),AL.12(&RNAME-&CSECT)                       11440002
&NRENTS  SETA  &NRENTS+1                                                11520002
         MEND                                                           11600002
*  DSGEN MACRO     DSGEN MACRO     DSGEN MACRO     DSGEN MACRO        * 11680002
         SPACE 2                                                        11760002
         MACRO                                                          11840002
&NAME    DSGEN &X1,&X2,&X3,&X4,&X5,&X6,&X7,&X8,&X9,&X10,&X11,&X12,&X13,X11920002
               &X14,&X15,&X16,&X17,&X18,&X19,&X20,&X21,&X22,&X23,&X24, X12000002
               &X25,&X26,&X27,&X28,&X29,&X30,&X31,&X32                  12080002
.*                            THIS MACRO GENERATES ONE DSECT WORD       12160002
.*                                 FORMATTED FOR THE SUBJECT LOG RECORD 12240002
.*                                 EACH OPERAND HAS TWO SUB LISTS. THE  12320002
.*                                 FIRST IS THE NAME OF THE LOG ITEM    12400002
.*                                 WHILE THE SECOND IS THE # OF BITS TO 12480002
.*                                 ALLOCATE FOR THIS ITEM. ITEMS MUST   12560002
.*                                 BE DEFINED CONTIGUOUSLY WITHOUT GAPS 12640002
.*                                 UNUSED BIT GROUPS MUST BE GIVEN      12720002
.*                                 DUMMY NAMES. THE NAMES PROVIDED FOR  12800002
.*                                 THE LOG ITEMS MAY THEN BE USED IN    12880002
.*                                 THE CONVERSION MACRO INSTRUCTIONS.   12960002
         GBLC &ITEM(1000)                                               13040002
         GBLA &ITEMNBR,&BITS(1000),&SHIFT(1000)                         13120002
         LCLC  &SYMBOL                                                  13200002
         LCLA  &OP,&COUNT,&BYTE                                         13280002
.LOOP    ANOP                                                           13360002
&OP      SETA  &OP+1                                                    13440002
&ITEMNBR SETA  &ITEMNBR+1                                               13520002
&SYMBOL  SETC  '&SYSLIST(&OP,1)'                                        13600002
         AIF   ('&SYSLIST(&OP,2)' NE '').OK1                            13680002
         MNOTE *,'NULL BIT COUNT FIELD'                                 13760002
         MEXIT                                                          13840002
.OK1     ANOP                                                           13920002
         AIF   ('&SYMBOL' NE '').OK                                     14000002
         MNOTE 'LOG ITEM SYMBOL NOT PROVIDED'                           14080002
         AGO   .CNT                                                     14160002
.OK      ANOP                                                           14240002
         AIF   ('&SYMBOL'(1,1) EQ '''').CNT                *TEMP*       14320002
&SYMBOL  EQU   *+&BYTE                                                  14400002
&ITEM(&ITEMNBR)  SETC '&SYSLIST(&OP,1)'                                 14480002
&BITS(&ITEMNBR) SETA &SYSLIST(&OP,2)                                    14560002
&SHIFT(&ITEMNBR) SETA &COUNT-&BYTE*8                                    14640002
.CNT     ANOP                                                           14720002
&COUNT   SETA  &COUNT+&SYSLIST(&OP,2)                                   14800002
&BYTE    SETA  &COUNT/8                                                 14880002
         AIF (&OP LT N'&SYSLIST).LOOP                                   14960002
         AIF   (&COUNT NE 32).NOT32                                     15040002
&NAME    DS    4C                                                       15120002
         MEXIT                                                          15200002
.NOT32   AIF   (&COUNT NE 64).ERR                                       15280002
&NAME    DS    8C                                                       15360002
         MEXIT                                                          15440002
.ERR     MNOTE '**BIT COUNT FIELDS DO NOT TOTAL 32 OR 64**'             15520002
         MEND                                                           15600002
         MACRO                                                          15680002
         LINEND                                                         15760002
.*                            THIS MACRO IS USED ONLY BY THE LINE       15840002
.*                                 MACRO TO SET THE NUMBER OF ENTRIES   15920002
.*                                 ASSOCIATED WITH EACH LINE.           16000002
         GBLA  &NRENTS                                                  16080002
         GBLC &NRENTSX                                                  16160002
         ORG   &NRENTSX                                                 16240002
         DC    FL1'&NRENTS'                                             16320002
         ORG                                                            16400002
&NRENTS  SETA  0                                                        16480002
B&SYSNDX EQU   *                                                        16560002
&NRENTSX SETC  'B&SYSNDX'                                               16640002
         MEND                                                           16720002
         SPACE 2                                                        16800002
         EJECT                                                          16880002
*  LABEL MACRO     LABEL MACRO     LABEL MACRO     LABEL MACRO        * 16960002
         SPACE 2                                                        17040002
         MACRO                                                          17120002
&NAME    LABEL &LABEL1,&LABEL2,&LABEL3,&LABEL4,&LABEL5,&LABEL6,        C17200002
               &LABEL7,&LABEL8                                          17280002
.*                            THIS MACRO ALLOWS UP TO ACHT LABELS TO    17360002
.*                                 BE SPECIFIED FOR A GIVEN LINE. THE   17440002
.*                                 LABELS SHOULD BE ENCLOSED IN QUOTA-  17520002
.*                                 TION MARKS. THE COLUMN AND LINE END  17600002
.*                                 CONTROLS WILL BE INSERTED BY THE     17680002
.*                                 MACRO. OMITTED OPERANDS MEAN NO      17760002
.*                                 LABEL REQUIRED FOR RESPECTIVE        17840002
.*                                 COLUMN. THIS MACRO WILL ALSO ALERT   17920002
.*                                 THE PROGRAMMER TO EXACTLY WHERE THE  18000002
.*                                 TABLE MUST BE BROKEN IF NECESSARY    18080002
.*                                 TO AVOID EXCEEDING THE MAXIMUM LIMIT 18160002
         GBLC &LABELS(2000)                                             18240002
         GBLC  &LBL(100)                                                18320002
         GBLA  &LBLCTR(100)                                             18400002
         GBLA  &LABELNR                                                 18480002
         GBLA  &NRENTS,&LPTR                                            18560002
         LCLC  &MARGIN,&TACK                                            18640002
         LCLC  &TEXT                                                    18720002
         LCLA  &OP,&K,&START,&NRCHAR,&REMAIN                            18800002
&MARGIN  SETC  '*'                                                      18880002
         AIF   ('&NAME' EQ '').LOOPOUT                                  18960002
&LPTR    SETA  &LPTR+1                                                  19040002
&LBL(&LPTR) SETC '&NAME'                                                19120002
&LBLCTR(&LPTR) SETA &LABELNR+1                                          19200002
.LOOPOUT ANOP                                                           19280002
&OP      SETA  &OP+1                                                    19360002
&K       SETA  K'&SYSLIST(&OP)                                          19440002
         AIF (&K GE 2).NORM                                             19520002
&K       SETA  2                                                        19600002
.NORM    ANOP                                                           19680002
&START   SETA  2                                                        19760002
         AIF (&OP LT N'&SYSLIST).NOTLAST                                19840002
&MARGIN  SETC  '$'                                                      19920002
.NOTLAST ANOP                                                           20000002
&NRCHAR  SETA  8                                                        20080002
&TACK    SETC  ''                                                       20160002
.LOOPIN  ANOP                                                           20240002
&REMAIN  SETA  &K-&START                                                20320002
         AIF (&REMAIN GE 8).MORE                                        20400002
&TACK    SETC  '&MARGIN'                                                20480002
&NRCHAR  SETA  &REMAIN                                                  20560002
.MORE    ANOP                                                           20640002
&TEXT    SETC  ''                                                       20720002
         AIF (&REMAIN EQ 0).ENDTEXT                                     20800002
&TEXT    SETC  '&SYSLIST(&OP)'(&START,&NRCHAR)                          20880002
.ENDTEXT ANOP                                                           20960002
&LABELNR SETA  &LABELNR+1                                               21040002
&LABELS(&LABELNR) SETC '&TEXT'.'&TACK'                                  21120002
&START   SETA  &START+8                                                 21200002
         AIF ('&TACK' EQ '').LOOPIN                                     21280002
         AIF ('&TACK' EQ '*').LOOPOUT                                   21360002
         MEND                                                           21440002
         SPACE 2                                                        21520002
         MACRO                                                          21600002
         LSTART                                                         21680002
.*                            THIS MACRO IS ISSUED WHEN THE LABEL AREA  21760002
.*                                 OF THE TABLE IS TO BEGIN.            21840002
         GBLC &LABELS(2000)                                             21920002
         GBLA  &LABELNR                                                 22000002
         GBLC  &LBL(100)                                                22080002
         GBLA  &LBLCTR(100)                                             22160002
         LCLA  &NDX,&CTR                                                22240002
         LINEND                                                         22320002
&CTR     SETA  1                                                        22400002
.LOOP    ANOP                                                           22480002
&NDX     SETA  &NDX+1                                                   22560002
         AIF   (&LBLCTR(&CTR) NE &NDX).NOLBL                            22640002
&LBL(&CTR) DC  C'&LABELS(&NDX)'                                         22720002
&CTR     SETA  &CTR+1                                                   22800002
         AGO   .LOOPCTL                                                 22880002
.NOLBL   ANOP                                                           22960002
         DC    C'&LABELS(&NDX)'                                         23040002
.LOOPCTL AIF   (&NDX LT &LABELNR).LOOP                                  23120002
         MEND                                                           23200002
         SPACE 2                                                        23280002
*  BIN MACRO     BIN MACRO     BIN MACRO     BIN MACRO     BIN MACRO  * 23360002
         SPACE 2                                                        23440002
         MACRO                                                          23520002
         BIN   &LOGITEM,&SKIP$OR                                        23600002
.*                                 &LOGITEM - NAME OF ITEM IN LOG       23680002
.*                                      RECORD DSECT                    23760002
.*                                 &SKIP$OR - NBR OF SPACES TO SKIP ON  23840002
.*                                 MULTIPLE PRINT OR NBR OF SPACES      23920002
.*                                      TO BACK UP FROM COLUMN FOR      24000002
.*                                      START OF PRINTING. THE LETTER   24080002
.*                                      B PRECEEDS THE NUMBER (B5) IF   24160002
.*                                      THE LATTER IS DESIRED. OMISSION 24240002
.*                                      OF THIS OPERAND FORCES OPTION 2 24320002
.*                                      WITH BACKUP SPACING EQUAL TO    24400002
.*                                 THE NUMBER OF BITS IN THE ITEM       24480002
.*                                 DEFINITION (VIA MACRO 'DSGEN').      24560002
.*                            A LIMIT OF 15 BITS IS IMPOSED FOR THE     24640002
.*                                 TOTAL NUMBER OF BITS TO PRINT.       24720002
         GBLC &ITEM(1000)                                               24800002
         GBLA &ITEMNBR,&BITS(1000),&SHIFT(1000),&NRENTS                 24880002
         GBLC  &DSECT                                                   24960002
         LCLB  &B                                                       25040002
         LCLA  &IBITS,&NDX,&ISHIFT,&K                                   25120002
         LCLA  &TEMP,&T                                                 25200002
         LCLC  &S                                                       25280002
.LOOP    ANOP                                                           25360002
&NDX     SETA  &NDX+1                                                   25440002
         AIF   ('&ITEM(&NDX)' EQ '&LOGITEM').FOUND                      25520002
         AIF   (&NDX LT &ITEMNBR).LOOP                                  25600002
         MNOTE *,'YOU BLEW IT'                                          25680002
         ROUTINE DUM,SKIPPER                                            25760002
         MEXIT                                                          25840002
.FOUND   ANOP                                                           25920002
&ISHIFT  SETA  &SHIFT(&NDX)                                             26000002
&IBITS   SETA  &BITS(&NDX)                                              26080002
&T       SETA  &IBITS-1                                                 26160002
&B       SETB  0                                                        26240002
         AIF   ('&SKIP$OR' EQ '').BACKUP                                26320002
&K       SETA  K'&SKIP$OR                                               26400002
&B       SETB  ('&SKIP$OR'(1,1) EQ 'B')                                 26480002
&S       SETC  '&SKIP$OR'(&B+1,&K-&B)                                   26560002
&T       SETA  &S                                                       26640002
.BACKUP  ANOP                                                           26720002
&NRENTS  SETA  &NRENTS+1                                                26800002
&TEMP    SETA  &ISHIFT                                                  26880002
A&SYSNDX DC    AL.12(&LOGITEM-&DSECT),XL.4'&TEMP'                       26960002
         AIF (&IBITS EQ 1 AND &B EQ 0).OUT                              27040002
         ORG   A&SYSNDX                                                 27120002
&B       SETB  1                                                        27200002
         DC    AL.12(&LOGITEM-&DSECT),XL.4'C'                           27280002
         DC    BL.1'&B',AL.7(&T),AL.4(&IBITS),FL.4'&ISHIFT'             27360002
.OUT     ANOP                                                           27440002
         MEND                                                           27520002
         EJECT                                                          27600002
*  HEX MACRO     HEX MACRO     HEX MACRO    HEXN MACRO     HEX MACRO  * 27680002
         SPACE 2                                                        27760002
         MACRO                                                          27840002
         HEX   &LOGITEM,&SKIP$OR,&BYTES                                 27920002
.*                            THIS MACRO FACILITATES GENERATION OF THE  28000002
.*                                 TABLE ENTRIES SPECIFYING HEX TYPE    28080002
.*                                 CONVERSIONS.                         28160002
.*                            &LOGITEM - NAME OF DATA ITEM TO BE        28240002
.*                                 CONVERTED                            28320002
.*                            &SKIP$OR - NUMBER OF SPACES TO SKIP ON    28400002
.*                                 MULTIPLE PRINT OR NBR OF SPACES TO   28480002
.*                                 BACK UP FROM COLUMN FOR START OF     28560002
.*                                 PRINTING. THE LETTER B PRECEEDS THE  28640002
.*                                 NUMBER (B8) IF THE LATTER OPTION IS  28720002
.*                                 DESIRED. OMISSION OF THIS OPERAND    28800002
.*                                 FORCES OPTION 2 WITH BACKUP SPACING  28880002
.*                                 EQUAL TO THE NUMBER OF BYTES SPECI-  28960002
.*                                 FIED BY THE NEXT OPERAND (TWICE THIS 29040002
.*                                 NUMBER IF SUFFIX IS EXPLICITLY OR    29120002
.*                                 IMPLICITLY B).                       29200002
.*                            &BYTES - NUMBER OF TOTAL INPUT BYTES TO   29280002
.*                                 PROCESS. THIS NUMBER IS SUFFIXED     29360002
.*                                 WITH AN L,R, OR B TO STIPULATE       29440002
.*                                 PRINTING OF THE LEFT HALF, RIGHT     29520002
.*                                 HALF, OR BOTH HALVES OF THE BYTE     29600002