         TITLE 'IFCEXXXC  -  LOAD MODULE NAME : IFCE3330'      @XM09337 00040002
*  DSGEN MACRO     DSGEN MACRO     DSGEN MACRO     DSGEN MACRO        * 00080020
         SPACE 2                                                        00160020
         MACRO                                                          00240020
&NAME    DSGEN &X1,&X2,&X3,&X4,&X5,&X6,&X7,&X8,&X9,&X10,&X11,&X12,&X13,X00320020
               &X14,&X15,&X16,&X17,&X18,&X19,&X20,&X21,&X22,&X23,&X24, X00400020
               &X25,&X26,&X27,&X28,&X29,&X30,&X31,&X32                  00480020
.*                            THIS MACRO GENERATES ONE DSECT WORD       00560020
.*                                 FORMATTED FOR THE SUBJECT LOG RECORD 00640020
.*                                 EACH OPERAND HAS TWO SUB LISTS. THE  00720020
.*                                 FIRST IS THE NAME OF THE LOG ITEM    00800020
.*                                 WHILE THE SECOND IS THE # OF BITS TO 00880020
.*                                 ALLOCATE FOR THIS ITEM. ITEMS MUST   00960020
.*                                 BE DEFINED CONTIGUOUSLY WITHOUT GAPS 01040020
.*                                 UNUSED BIT GROUPS MUST BE GIVEN      01120020
.*                                 DUMMY NAMES. THE NAMES PROVIDED FOR  01200020
.*                                 THE LOG ITEMS MAY THEN BE USED IN    01280020
.*                                 THE CONVERSION MACRO INSTRUCTIONS.   01360020
         GBLC &ITEM(1000)                                               01440020
         GBLA &ITEMNBR,&BITS(1000),&SHIFT(1000)                         01520020
         LCLC  &SYMBOL                                                  01600020
         LCLA  &OP,&COUNT,&BYTE                                         01680020
.LOOP    ANOP                                                           01760020
&OP      SETA  &OP+1                                                    01840020
&ITEMNBR SETA  &ITEMNBR+1                                               01920020
&SYMBOL  SETC  '&SYSLIST(&OP,1)'                                        02000020
         AIF   ('&SYSLIST(&OP,2)' NE '').OK1                            02080020
         MNOTE *,'NULL BIT COUNT FIELD'                                 02160020
         MEXIT                                                          02240020
.OK1     ANOP                                                           02320020
         AIF   ('&SYMBOL' NE '').OK                                     02400020
         MNOTE 'LOG ITEM SYMBOL NOT PROVIDED'                           02480020
         AGO   .CNT                                                     02560020
.OK      ANOP                                                           02640020
         AIF   ('&SYMBOL'(1,1) EQ '''').CNT                *TEMP*       02720020
&SYMBOL  EQU   *+&BYTE                                                  02800020
&ITEM(&ITEMNBR)  SETC '&SYSLIST(&OP,1)'                                 02880020
&BITS(&ITEMNBR) SETA &SYSLIST(&OP,2)                                    02960020
&SHIFT(&ITEMNBR) SETA &COUNT-&BYTE*8                                    03040020
.CNT     ANOP                                                           03120020
&COUNT   SETA  &COUNT+&SYSLIST(&OP,2)                                   03200020
&BYTE    SETA  &COUNT/8                                                 03280020
         AIF (&OP LT N'&SYSLIST).LOOP                                   03360020
         AIF   (&COUNT NE 32).NOT32                                     03440020
&NAME    DS    4C                                                       03520020
         MEXIT                                                          03600020
.NOT32   AIF   (&COUNT NE 64).ERR                                       03680020
&NAME    DS    8C                                                       03760020
         MEXIT                                                          03840020
.ERR     MNOTE '**BIT COUNT FIELDS DO NOT TOTAL 32 OR 64**'             03920020
         MEND                                                           04000020
         EJECT                                                          04080020
*  LINE MACRO     LINE MACRO     LINE MACRO     LINE MACRO            * 04160020
         SPACE 2                                                        04240020
         MACRO                                                          04320020
&NAME    LINE  &DATA,&LABEL,&SKIP=                                      04400020
.*                            THIS MACRO ESTABLISHES THE MARGINS OR     04480020
.*                                 COLUMN SETTINGS FOR EACH LINE. IT    04560020
.*                                 GENERATES NECESSARY CARRIAGE CONTROL 04640020
.*                                 ENTRIES. LASTLY IT DETERMINES THE    04720020
.*                                 NUMBER OF ENTRIES ASSOCIATED WITH    04800020
.*                                 THE PREVIOUS LINE AND STORES THAT #  04880020
.*                                 INTO THE APPROPRIATE BYTE.           04960020
.*                            &DATA(1) - CHARACTER POSITION TO BEGIN    05040020
.*                                 DATA.                                05120020
.*                            &DATA(2) - # OF SPACES BETWEEN SUCCESSIVE 05200020
.*                                 DATA COLUMN STARTING CHARACTERS.     05280020
.*                            &LABEL(1) - CHAR. POS. TO BEGIN LABELS.   05360020
.*                            &LABEL(2) - # SPACES BETWEEN LINE'S LABEL 05440020
.*                                 STARTING CHARACTERS.                 05520020
.*                            &SKIP= - # OF LINES TO ADVANCE CARRIAGE   05600020
.*                                 TO BEGIN NEXT PRINTED LINE.          05680020
.*                            NEW ENTRIES ARE GENERATED ONLY WHEN       05760020
.*                                 NECESSARY. OMISSION OF ITEMS MEANS   05840020
.*                                 THEY HAVE NOT CHANGED SINCE PREVIOUS 05920020
.*                                 SETTINGS. A LINE MACRO IS REQUIRED   06000020
.*                                 FOR EACH PRINTED LINE. IF NO SETTING 06080020
.*                                 CHANGES ARE REQUIRED ALL OPERANDS    06160020
.*                                 ARE OMITTED IN WHICH CASE ONLY THE   06240020
.*                                 # OF ENTRIES FOR THE PREVIOUS LINE   06320020
.*                                 IS COMPUTED. THIS MACRO MUST BE THE  06400020
.*                                 FIRST MACRO INSTRUCTION ISSUED FOR   06480020
.*                                 THE SUBJECT LINE                     06560020
         GBLA  &DB,&DT,&LB,&LT,&NRENTS                                  06640020
         GBLA  &LASTCC,&INITIAL                                         06720020
         GBLC  &NRENTSX                                                 06800020
         GBLC  &CARRCON                                                 06880020
         GBLB  &TEST                                                    06960020
         LCLA  &S                                                       07040020
&NAME    DS    0C                                                       07120020
         AIF   (&INITIAL EQ 0).FIRSTLN                                  07200020
         LINEND                                                         07280020
         AGO   .NTFIRST                                                 07360020
.FIRSTLN ANOP                                                           07440020
&NRENTSX SETC  'N&SYSNDX'                                               07520020
&INITIAL SETA  1                                                        07600020
N&SYSNDX EQU   *                                                        07680020
.NTFIRST ANOP                                                           07760020
         DC    AL1(0)                                                   07840020
         AIF   ('&DATA(1)' EQ '').CKDTABS                               07920020
         AIF   (&DATA(1) EQ &DB).CKDTABS                                08000020
&DB      SETA  &DATA(1)                                                 08080020
         AGO   .AA                                                      08160020
.CKDTABS AIF   ('&DATA(2)' EQ '').NCDATA                                08240020
         AIF   (&DATA(2) EQ &DT).NCDATA                                 08320020
         AGO   .CC                                                      08400020
.AA      AIF   ('&DATA(2)' EQ '').BB                                    08480020
         AIF   (&DATA(2) EQ &DT).BB                                     08560020
.CC      ANOP                                                           08640020
&DT      SETA  &DATA(2)                                                 08720020
.BB      DC    XL2'FFFE'                                                08800020
         DC    FL1'&DB'                                                 08880020
         DC    FL1'&DT'                                                 08960020
&NRENTS  SETA  &NRENTS+1                                                09040020
.NCDATA  ANOP                                                           09120020
         AIF   ('&LABEL(1)' EQ '').CKLTABS                              09200020
         AIF   (&LABEL(1) EQ &LB).CKLTABS                               09280020
&LB      SETA  &LABEL(1)                                                09360020
         AGO   .AAA                                                     09440020
.CKLTABS AIF   ('&LABEL(2)' EQ '').NCLABEL                              09520020
         AIF   (&LABEL(2) EQ &LT).NCLABEL                               09600020
         AGO   .CCC                                                     09680020
.AAA     AIF   ('&LABEL(2)' EQ '').BBB                                  09760020
         AIF   (&LABEL(2) EQ &LT).BBB                                   09840020
.CCC     ANOP                                                           09920020
&LT      SETA  &LABEL(2)                                                10000020
.BBB     DC    XL2'FFFF'                                                10080020
         DC    FL1'&LB'                                                 10160020
         DC    FL1'&LT'                                                 10240020
&NRENTS  SETA  &NRENTS+1                                                10320020
.NCLABEL ANOP                                                           10400020
         AIF   ('&SKIP' NE '').CONT                                     10480020
         AIF   (&TEST EQ 0).NOCHANG                                     10560020
&S       SETA  &LASTCC                                                  10640020
         AGO   .DEFAULT                                                 10720020
.CONT    ANOP                                                           10800020
         AIF   (&TEST EQ 0).AB                                          10880020
&S       SETA  &SKIP                                                    10960020
.DEFAULT ANOP                                                           11040020
         ORG   &CARRCON+3                                               11120020
         DC    AL.3(0),AL.2(&S),AL.3(1)                                 11200020
         ORG                                                            11280020
&LASTCC  SETA  &S                                                       11360020
&TEST    SETB  0                                                        11440020
         AGO   .DD                                                      11520020
.AB      AIF   (&SKIP EQ &LASTCC).NOCHANG                               11600020
A&SYSNDX DC    XL2'FFFB'                                                11680020
         DC    AL.3(0),AL.2(&SKIP),AL.3(1)                              11760020
         DC    FL1'9'                                                   11840020
&LASTCC  SETA  &SKIP                                                    11920020
&TEST    SETB  1                                                        12000020
&CARRCON SETC  'A&SYSNDX'                                               12080020
&NRENTS  SETA  &NRENTS+1                                                12160020
.DD      ANOP                                                           12240020
.NOCHANG ANOP                                                           12320020
         MEND                                                           12400020
         EJECT                                                          12480020
*  BIN MACRO     BIN MACRO     BIN MACRO     BIN MACRO     BIN MACRO  * 12560020
         SPACE 2                                                        12640020
         MACRO                                                          12720020
         BIN   &LOGITEM,&SKIP$OR                                        12800020
.*                                 &LOGITEM - NAME OF ITEM IN LOG       12880020
.*                                      RECORD DSECT                    12960020
.*                                 &SKIP$OR - NBR OF SPACES TO SKIP ON  13040020
.*                                 MULTIPLE PRINT OR NBR OF SPACES      13120020
.*                                      TO BACK UP FROM COLUMN FOR      13200020
.*                                      START OF PRINTING. THE LETTER   13280020
.*                                      B PRECEEDS THE NUMBER (B5) IF   13360020
.*                                      THE LATTER IS DESIRED. OMISSION 13440020
.*                                      OF THIS OPERAND FORCES OPTION 2 13520020
.*                                      WITH BACKUP SPACING EQUAL TO    13600020
.*                                 THE NUMBER OF BITS IN THE ITEM       13680020
.*                                 DEFINITION (VIA MACRO 'DSGEN').      13760020
.*                            A LIMIT OF 15 BITS IS IMPOSED FOR THE     13840020
.*                                 TOTAL NUMBER OF BITS TO PRINT.       13920020
         GBLC &ITEM(1000)                                               14000020
         GBLA &ITEMNBR,&BITS(1000),&SHIFT(1000),&NRENTS                 14080020
         GBLC  &DSECT                                                   14160020
         LCLB  &B                                                       14240020
         LCLA  &IBITS,&NDX,&ISHIFT,&K                                   14320020
         LCLA  &TEMP,&T                                                 14400020
         LCLC  &S                                                       14480020
.LOOP    ANOP                                                           14560020
&NDX     SETA  &NDX+1                                                   14640020
         AIF   ('&ITEM(&NDX)' EQ '&LOGITEM').FOUND                      14720020
         AIF   (&NDX LT &ITEMNBR).LOOP                                  14800020
         MNOTE *,'YOU BLEW IT'                                          14880020
         ROUTINE DUM,SKIPPER                                            14960020
         MEXIT                                                          15040020
.FOUND   ANOP                                                           15120020
&ISHIFT  SETA  &SHIFT(&NDX)                                             15200020
&IBITS   SETA  &BITS(&NDX)                                              15280020
&T       SETA  &IBITS-1                                                 15360020
&B       SETB  0                                                        15440020
         AIF   ('&SKIP$OR' EQ '').BACKUP                                15520020
&K       SETA  K'&SKIP$OR                                               15600020
&B       SETB  ('&SKIP$OR'(1,1) EQ 'B')                                 15680020
&S       SETC  '&SKIP$OR'(&B+1,&K-&B)                                   15760020
&T       SETA  &S                                                       15840020
.BACKUP  ANOP                                                           15920020
&NRENTS  SETA  &NRENTS+1                                                16000020
&TEMP    SETA  &ISHIFT                                                  16080020
A&SYSNDX DC    AL.12(&LOGITEM-&DSECT),XL.4'&TEMP'                       16160020
         AIF (&IBITS EQ 1 AND &B EQ 0).OUT                              16240020
         ORG   A&SYSNDX                                                 16320020
&B       SETB  1                                                        16400020
         DC    AL.12(&LOGITEM-&DSECT),XL.4'C'                           16480020
         DC    BL.1'&B',AL.7(&T),AL.4(&IBITS),FL.4'&ISHIFT'             16560020
.OUT     ANOP                                                           16640020
         MEND                                                           16720020
         EJECT                                                          16800020
*  HEX MACRO     HEX MACRO     HEX MACRO    HEXN MACRO     HEX MACRO  * 16880020
         SPACE 2                                                        16960020
         MACRO                                                          17040020
         HEX   &LOGITEM,&SKIP$OR,&BYTES                                 17120020
.*                            THIS MACRO FACILITATES GENERATION OF THE  17200020
.*                                 TABLE ENTRIES SPECIFYING HEX TYPE    17280020
.*                                 CONVERSIONS.                         17360020
.*                            &LOGITEM - NAME OF DATA ITEM TO BE        17440020
.*                                 CONVERTED                            17520020
.*                            &SKIP$OR - NUMBER OF SPACES TO SKIP ON    17600020
.*                                 MULTIPLE PRINT OR NBR OF SPACES TO   17680020
.*                                 BACK UP FROM COLUMN FOR START OF     17760020
.*                                 PRINTING. THE LETTER B PRECEEDS THE  17840020
.*                                 NUMBER (B8) IF THE LATTER OPTION IS  17920020
.*                                 DESIRED. OMISSION OF THIS OPERAND    18000020
.*                                 FORCES OPTION 2 WITH BACKUP SPACING  18080020
.*                                 EQUAL TO THE NUMBER OF BYTES SPECI-  18160020
.*                                 FIED BY THE NEXT OPERAND (TWICE THIS 18240020
.*                                 NUMBER IF SUFFIX IS EXPLICITLY OR    18320020
.*                                 IMPLICITLY B).                       18400020
.*                            &BYTES - NUMBER OF TOTAL INPUT BYTES TO   18480020
.*                                 PROCESS. THIS NUMBER IS SUFFIXED     18560020
.*                                 WITH AN L,R, OR B TO STIPULATE       18640020
.*                                 PRINTING OF THE LEFT HALF, RIGHT     18720020
.*                                 HALF, OR BOTH HALVES OF THE BYTE     18800020
.*                                 RESPECTIVELY. OMISSION OF THIS       18880020
.*                                 OPERAND DEFAULTS TO B WITH THE NUM-  18960020
.*                                 BER OF BYTES EQUAL TO THE ITEM LNGTH 19040020
.*                            A NEW ENTRY IS GENERATED ONLY WHEN NECES- 19120020
.*                                 SARY. THIS MACRO MUST BE THE FIRST   19200020
.*                                 MACRO INSTRUCTION ISSUED FOR THE     19280020
.*                                 SUBJECT LINE(S).                     19360020
         GBLC &ITEM(1000),&DSECT                                        19440020
         GBLA &ITEMNBR,&BITS(1000),&SHIFT(1000),&NRENTS                 19520020
         LCLB  &B                                                       19600020
         LCLA  &IBITS,&NDX,&ISHIFT,&K,&T,&CODE,&BYTESP                  19680020
         LCLC  &S,&LETTER                                               19760020
.LOOP    ANOP                                                           19840020
&NDX     SETA  &NDX+1                                                   19920020
         AIF   ('&ITEM(&NDX)' EQ '&LOGITEM').FOUND                      20000020
         AIF   (&NDX LT &ITEMNBR).LOOP                                  20080020
         MNOTE *,'LOG ITEM NOT DEFINED'                                 20160020
         MEXIT                                                          20240020
.FOUND   ANOP                                                           20320020
&ISHIFT  SETA  &SHIFT(&NDX)                                             20400020
&IBITS   SETA  &BITS(&NDX)                                              20480020
&CODE    SETA  1                                                        20560020
&K       SETA  K'&BYTES                                                 20640020
         AIF   (&IBITS-(&IBITS/4)*4 EQ 0).OK                            20720020
         MNOTE *,'BIT LENGTH SPECIFICATION INCONSISTENT WITH CONTROL'   20800020
         MEXIT                                                          20880020
.OK      AIF   ('&BYTES' EQ '').USEDEFN                                 20960020
&LETTER  SETC  '&BYTES'(&K,1)                                           21040020
&S       SETC  '&BYTES'(1,&K-1)                                         21120020
&BYTESP  SETA  &S                                                       21200020
         AIF   ('&LETTER' EQ 'B').BOTH                                  21280020
         AIF   (&ISHIFT EQ 0 OR &ISHIFT EQ 4).OK2                       21360020
.ERR     MNOTE *,'DATA NOT ALLIGNED ON HEX OR BYTE BOUNDARY'            21440020
         MEXIT                                                          21520020
.USEDEFN ANOP                                                           21600020
&BYTESP  SETA  &IBITS/8                                                 21680020
.BOTH    AIF   (&ISHIFT NE 0).ERR                                       21760020
&CODE    SETA  3                                                        21840020
&T       SETA  &BYTESP*2-1                                              21920020
&S       SETC  '&T'                                                     22000020
.OK2     AIF   (&ISHIFT EQ 0).L                                         22080020
&CODE    SETA  2                                                        22160020
.L       ANOP                                                           22240020
&B       SETB  1                                                        22320020
         AIF   ('&SKIP$OR' EQ '').BACKUP                                22400020
&K       SETA  K'&SKIP$OR                                               22480020
&B       SETB  ('&SKIP$OR'(1,1) EQ 'B')                                 22560020
&S       SETC  '&SKIP$OR'(&B+1,&K-&B)                                   22640020
.BACKUP  ANOP                                                           22720020
&NRENTS  SETA  &NRENTS+1                                                22800020
         DC    AL.12(&LOGITEM-&DSECT),XL.4'A'                           22880020
         DC    BL.1'&B',FL.7'&S',FL.4'&BYTESP',FL.4'&CODE'              22960020
.OUT     ANOP                                                           23040020
         MEND                                                           23120020
         SPACE 2                                                        23200020
*  ROUTINE MACRO     ROUTINE MACRO     ROUTINE MACRO     ROUTINE MACRO* 23280020
         SPACE 2                                                        23360020
         MACRO                                                          23440020
&NAME    ROUTINE &LOGITEM,&RNAME                                        23520020
         GBLC  &DSECT,&CSECT                                            23600020
         GBLC  &ITEM(1000)                                              23680020
         GBLA  &SHIFT(1000),&ITEMNBR                                    23760020
         GBLA  &NRENTS                                                  23840020
         LCLA  &ISHIFT,&NDX                                             23920020
.LOOP    ANOP                                                           24000020
&NDX     SETA  &NDX+1                                                   24080020
         AIF   ('&ITEM(&NDX)' EQ '&LOGITEM').FOUND                      24160020
         AIF   (&NDX LT &ITEMNBR).LOOP                                  24240020
         MNOTE *,'LOG ITEM NOT DEFINED'                                 24320020
         MEXIT                                                          24400020
.FOUND   ANOP                                                           24480020
&ISHIFT  SETA  &SHIFT(&NDX)                                             24560020
&NAME    DC    AL.12(&LOGITEM-&DSECT),XL.4'D'                           24640020
         DC    AL.4(&ISHIFT),AL.12(&RNAME-&CSECT)                       24720020
&NRENTS  SETA  &NRENTS+1                                                24800020
         MEND                                                           24880020
         EJECT                                                          24960020
*  LABEL MACRO     LABEL MACRO     LABEL MACRO     LABEL MACRO        * 25040020
         SPACE 2                                                        25120020
         MACRO                                                          25200020
         LABEL &LABEL1,&LABEL2,&LABEL3,&LABEL4,&LABEL5,&LABEL6,        C25280020
               &LABEL7,&LABEL8                                          25360020
.*                            THIS MACRO ALLOWS UP TO ACHT LABELS TO    25440020
.*                                 BE SPECIFIED FOR A GIVEN LINE. THE   25520020
.*                                 LABELS SHOULD BE ENCLOSED IN QUOTA-  25600020
.*                                 TION MARKS. THE COLUMN AND LINE END  25680020
.*                                 CONTROLS WILL BE INSERTED BY THE     25760020
.*                                 MACRO. OMITTED OPERANDS MEAN NO      25840020
.*                                 LABEL REQUIRED FOR RESPECTIVE        25920020
.*                                 COLUMN. THIS MACRO WILL ALSO ALERT   26000020
.*                                 THE PROGRAMMER TO EXACTLY WHERE THE  26080020
.*                                 TABLE MUST BE BROKEN IF NECESSARY    26160020
.*                                 TO AVOID EXCEEDING THE MAXIMUM LIMIT 26240020
         GBLC &LABELS(1000)                                             26320020
         GBLA  &LABELNR                                                 26400020
         GBLA  &NRENTS                                                  26480020
         LCLC  &MARGIN,&TACK                                            26560020
         LCLC  &TEXT                                                    26640020
         LCLA  &OP,&K,&START,&NRCHAR,&REMAIN                            26720020
&MARGIN  SETC  '*'                                                      26800020
.LOOPOUT ANOP                                                           26880020
&OP      SETA  &OP+1                                                    26960020
&K       SETA  K'&SYSLIST(&OP)                                          27040020
         AIF (&K GE 2).NORM                                             27120020
&K       SETA  2                                                        27200020
.NORM    ANOP                                                           27280020
&START   SETA  2                                                        27360020
         AIF (&OP LT N'&SYSLIST).NOTLAST                                27440020
&MARGIN  SETC  '$'                                                      27520020
.NOTLAST ANOP                                                           27600020
&NRCHAR  SETA  8                                                        27680020
&TACK    SETC  ''                                                       27760020
.LOOPIN  ANOP                                                           27840020
&REMAIN  SETA  &K-&START                                                27920020
         AIF (&REMAIN GE 8).MORE                                        28000020
&TACK    SETC  '&MARGIN'                                                28080020
&NRCHAR  SETA  &REMAIN                                                  28160020
.MORE    ANOP                                                           28240020
&TEXT    SETC  ''                                                       28320020
         AIF (&REMAIN EQ 0).ENDTEXT                                     28400020
&TEXT    SETC  '&SYSLIST(&OP)'(&START,&NRCHAR)                          28480020
.ENDTEXT ANOP                                                           28560020
&LABELNR SETA  &LABELNR+1                                               28640020
&LABELS(&LABELNR) SETC '&TEXT'.'&TACK'                                  28720020
&START   SETA  &START+8                                                 28800020
         AIF ('&TACK' EQ '').LOOPIN                                     28880020
         AIF ('&TACK' EQ '*').LOOPOUT                                   28960020
         MEND                                                           29040020
         MACRO                                                          29120020
         LSTART                                                         29200020
.*                            THIS MACRO IS ISSUED WHEN THE LABEL AREA  29280020
.*                                 OF THE TABLE IS TO BEGIN.            29360020
         GBLC &LABELS(1000)                                             29440020
         GBLA  &LABELNR                                                 29520020