 TITLE 'IFCEAXXX - VTAM RECORD EDIT'                                    00060002
*          THIS MODULE IN SUPPORT OF                            XL03004 00120002
         MACRO                                                          00180002
&NAME    DSGEN ,                                                        00240002
.*                            THIS MACRO GENERATES ONE DSECT WORD       00300002
.*                                 FORMATTED FOR THE SUBJECT LOG RECORD 00360002
.*                                 EACH OPERAND HAS TWO SUB LISTS. THE  00420002
.*                                 FIRST IS THE NAME OF THE LOG ITEM    00480002
.*                                 WHILE THE SECOND IS THE # OF BITS TO 00540002
.*                                 ALLOCATE FOR THIS ITEM. ITEMS MUST   00600002
.*                                 BE DEFINED CONTIGUOUSLY WITHOUT GAPS 00660002
.*                                 UNUSED BIT GROUPS MUST BE GIVEN      00720002
.*                                 DUMMY NAMES. THE NAMES PROVIDED FOR  00780002
.*                                 THE LOG ITEMS MAY THEN BE USED IN    00840002
.*                                 THE CONVERSION MACRO INSTRUCTIONS.   00900002
         GBLA  &BITS(2600),&DB,&DT,&INITIAL                             00960002
         GBLA  &ITEMITR,&ITEMFST(20),&ITEMNBR,&ITEMMDX                  01020002
         GBLA  &ITEMNDX(2600),&ITEMXPT                                  01080002
         GBLA  &LABELNR,&LASTCC,&LB,&LBLCTR(100),&LPTR,&LT              01140002
         GBLA  &NRENTS,&SHIFT(2600)                                     01200002
         GBLB  &DIAGITF,&DIAGLIN,&DIAGSET,&DIAGTST,&FSW,&TEST           01260002
         GBLC  &CARRCON,&CSECT,&DSECT,&ITEM(2600)                       01320002
         GBLC  &LABELS(2600),&LBL(100),&NRENTSX                         01380002
         LCLB  &ONLY1,&CTIND                                            01440002
         LCLA  &START1,&START2,&END1,&END2                              01500002
         LCLC  &SYMBOL,&EQUSYM                                          01560002
         LCLA  &OP,&COUNT,&BYTE,&EQUCNT                                 01620002
         ACTR  100000                                                   01680002
         AIF   (&ITEMITR EQ 0).START                                    01740002
 MNOTE   20,'DSGEN MACRO OCCURRS AFTER ITEMSORT MACRO HAS BEEN ISSUED.' 01800002
         MEXIT                                                          01860002
.START   AIF   (N'&SYSLIST(&OP+1) LT 3).LOOP                            01920002
         AIF   ('&SYSLIST(&OP+1,3)' EQ 'EQU').LOOP     TEST FOR EQU     01980002
  AIF   ('&SYSLIST(&OP+1,3)' EQ '' OR '&SYSLIST(&OP+1,4)' EQ '').ERR1   02040002
         AIF   ('&SYSLIST(&OP+1,3)' GT '&SYSLIST(&OP+1,4)').ERR3        02100002
&START1  SETA  &SYSLIST(&OP+1,3)        GET START COUNT OF 1            02160002
&START2  SETA  &SYSLIST(&OP+1,4)        GET FIRST END COUNT             02220002
         AGO   .SET2A                   BRANCH AROUND                   02280002
         AIF   ('&SYSLIST(&OP+1,5)' GT '&SYSLIST(&OP+1,6)').ERR3        02340002
.ERR1    MNOTE '**FIRST SYMBOL CONCATENATION INCOMPLETE**'              02400002
         MEXIT                                                          02460002
.SET2A   AIF   ('&SYSLIST(&OP+1,5)' EQ ''AND '&SYSLIST(&OP+1,6)' EQ '' X02520002
               ).SET2                   TEST FOR NO SECOND              02580002
  AIF   ('&SYSLIST(&OP+1,5)' EQ '' OR '&SYSLIST(&OP+1,6)' EQ '').ERR2   02640002
&END1    SETA  &SYSLIST(&OP+1,5)        GET START COUNT OF 2            02700002
&END2    SETA  &SYSLIST(&OP+1,6)        GET END COUNT OF 2              02760002
         AGO   .LOOP                                                    02820002
.SET2    ANOP                                                           02880002
&ONLY1   SETB  1                        INDICATE ONLY ONE CONCATENATION 02940002
         AGO   .LOOP                                                    03000002
.ERR2    MNOTE '**SECOND SYMBOL CONCATENATION INCOMPLETE**'             03060002
         MEXIT                                                          03120002
.ERR3    MNOTE '**START GREATER THAN END CONCATENATION**'               03180002
         MEXIT                                                          03240002
.LOOP    ANOP                                                           03300002
&OP      SETA  &OP+1                                                    03360002
         AIF   (&OP GT N'&SYSLIST).DONE      TEST IF ALL DONE           03420002
&ITEMNBR SETA  &ITEMNBR+1                                               03480002
         AIF   ('&SYSLIST(&OP,2)' NE '').OK1                            03540002
         MNOTE '**NULL BIT COUNT FIELD**'                               03600002
         MEXIT                                                          03660002
.OK1     ANOP                                                           03720002
&SYMBOL  SETC  '&SYSLIST(&OP,1)'                                        03780002
         AIF   ('&SYMBOL' NE '').OK                                     03840002
*              *****     LOG ITEM SYMBOL NOT PROVIDED     *****         03900002
         AIF   ('&SYSLIST(&OP,3)' NE 'EQU').CNT                         03960002
         AGO   .START                   GET NEXT                        04020002
.OK      AIF   (N'&SYSLIST(&OP) LT 3).NO3    TEST FOR OLD FORMAT        04080002
         AIF   ('&SYSLIST(&OP,3)' EQ 'EQU').EQU   TEST FOR EQU          04140002
         AIF   (&ONLY1).OK2             TEST FOR ONLY ONE CONCAT        04200002
&SYMBOL  SETC  '&SYMBOL.&START1.&END1'       GET 1 AND 2 CONCAT         04260002
         AGO   .NO3                     BRANCH AROUND                   04320002
.OK2     ANOP                                                           04380002
&SYMBOL  SETC  '&SYMBOL.&START1'        GET 1 CONCATENATED              04440002
.NO3     ANOP                                                           04500002
&SYMBOL  EQU   *+&BYTE                                                  04560002
&ITEM(&ITEMNBR) SETC '&SYMBOL'          GET LABEL IN GLOBAL             04620002
&BITS(&ITEMNBR) SETA &SYSLIST(&OP,2)                                    04680002
&SHIFT(&ITEMNBR) SETA &COUNT-&BYTE*8                                    04740002
.CNT     ANOP                                                           04800002
&CTIND   SETB  1                        SET COUNT INDICATOR             04860002
&COUNT   SETA  &COUNT+&SYSLIST(&OP,2)                                   04920002
&BYTE    SETA  &COUNT/8                                                 04980002
         AIF   (N'&SYSLIST(&OP) LT 3).START  TEST FOR OLD FORMAT        05040002
         AIF   (&ONLY1).TSTST           TEST FOR ONLY ONE CONCAT        05100002
         AIF   (&END1 EQ &END2).TSTST   TEST FOR SECOND END             05160002
&END1    SETA  &END1+1                  INCREMENT COUNT                 05220002
&OP      SETA  &OP-1                    DECREMENT INCREMENT             05280002
         AGO   .LOOP                    GENERATE NEXT                   05340002
.TSTST   ANOP                                                           05400002
         AIF   (&START1 EQ &START2).LPDONE   TEST FOR END               05460002
         AIF   (&ONLY1).NSET1           TEST FOR ONLY ONE CONCAT        05520002
&END1    SETA  &SYSLIST(&OP,5)          RE-INIT SECOND START COUNT      05580002
.NSET1   ANOP                                                           05640002
&OP      SETA  &OP-1                    DECREMENT INDEX                 05700002
&START1  SETA  &START1+1                INCREMENT FIRST COUNT           05760002
         AGO   .LOOP                    GO DO NEXT                      05820002
.LPDONE  ANOP                                                           05880002
&ONLY1   SETB  0                        CLEAR INDICATOR                 05940002
         AGO   .START                   GO TEST FOR MORE SUB-LISTS      06000002
.DONE    AIF   (&COUNT-&COUNT/8*8 NE 0).ERR  TEST FOR MULTIPLE OF EIGHT 06060002
         AIF   (&CTIND EQ 0).END        NO DS IF NO COUNT               06120002
&COUNT   SETA  &COUNT/8                 GET NUMBER OF BYTES             06180002
&NAME    DS    &COUNT.C                                                 06240002
.END     MEXIT                                                          06300002
.ERR     MNOTE '**BIT COUNT FLDS DO NOT TOTAL MULTIPLE OF 8**'          06360002
         MEXIT                                                          06420002
.EQU     AIF   ('&SYSLIST(&OP,4)' NE '').EQU1     TEST FOR NULL LABEL   06480002
.ERR4    MNOTE '**EQU OPERAND OMITTED OR NOT FOUND**'                   06540002
         MEXIT                                                          06600002
.EQU1    AIF   (&SYSLIST(&OP,2) LT 16).EQU2  COUNT OVER FIFTEEN         06660002
*****               THE FOLLOWING STATEMENT                *****        06720002
*****     NUMBER OF BITS EXCEED 15 - DO NOT USE AS BIN     *****        06780002
.EQU2    ANOP                                                           06840002
&EQUCNT  SETA  0                        CLEAR COUNTER                   06900002
&EQUSYM  SETC  '&SYSLIST(&OP,4)'        GET EQU OPERAND                 06960002
.EQULOP  ANOP                                                           07020002
&EQUCNT  SETA  &EQUCNT+1                INCREMENT INDEX                 07080002
         AIF   ('&ITEM(&EQUCNT)' EQ '&EQUSYM').EQUOUT  LABEL FOUND?     07140002
         AIF   (&EQUCNT EQ &ITEMNBR).ERR4    ALL TESTED?                07200002
         AGO   .EQULOP                  NO-GET NEXT                     07260002
.EQUOUT  ANOP                                                           07320002
&ITEM(&ITEMNBR) SETC '&SYMBOL'          GET LABEL NAME                  07380002
&BITS(&ITEMNBR) SETA &SYSLIST(&OP,2)    GET NUMBER OF BITS              07440002
&SHIFT(&ITEMNBR) SETA &SHIFT(&EQUCNT)   GET SHIFT COUNT                 07500002
&SYMBOL  EQU   &EQUSYM                  THIS SYMBOL EQUATED             07560002
         AGO   .START                   RETURN FOR NEXT                 07620002
         MEND                                                           07680002
         MACRO                                                          07740002
         HEX   ,                                                        07800002
.*                            THIS MACRO FACILITATES GENERATION OF THE  07860002
.*                                 TABLE ENTRIES SPECIFYING HEX TYPE    07920002
.*                                 CONVERSIONS.                         07980002
.*                            &SYSLIST(&OP,1) - NAME OF DATA ITEM TO BE 08040002
.*                                 CONVERTED                            08100002
.*                            &SYSLIST(&OP,2) - # OF SPACES TO SKIP ON  08160002
.*                                 MULTIPLE PRINT OR NBR OF SPACES TO   08220002
.*                                 BACK UP FROM COLUMN FOR START OF     08280002
.*                                 PRINTING. THE LETTER B PRECEEDS THE  08340002
.*                                 NUMBER (B8) IF THE LATTER OPTION IS  08400002
.*                                 DESIRED. OMISSION OF THIS OPERAND    08460002
.*                                 FORCES OPTION 2 WITH BACKUP SPACING  08520002
.*                                 EQUAL TO THE NUMBER OF BYTES SPECI-  08580002
.*                                 FIED BY THE NEXT OPERAND (TWICE THIS 08640002
.*                                 NUMBER IF SUFFIX IS EXPLICITLY OR    08700002
.*                                 IMPLICITLY B).                       08760002
.*                            &SYSLIST(&OP,3) - NUMBER OF BYTES TO      08820002
.*                                 PROCESS. THIS NUMBER IS SUFFIXED     08880002
.*                                 WITH AN L,R, OR B TO STIPULATE       08940002
.*                                 PRINTING OF THE LEFT HALF, RIGHT     09000002
.*                                 HALF, OR BOTH HALVES OF THE BYTE     09060002
.*                                 RESPECTIVELY. OMISSION OF THIS       09120002
.*                                 OPERAND DEFAULTS TO B WITH THE NUM-  09180002
.*                                 BER OF BYTES EQUAL TO THE ITEM LNGTH 09240002
.*                            A NEW ENTRY IS GENERATED ONLY WHEN NECES- 09300002
.*                                 SARY. THIS MACRO MUST BE THE FIRST   09360002
.*                                 MACRO INSTRUCTION ISSUED FOR THE     09420002
.*                                 SUBJECT LINE(S).                     09480002
         GBLA  &BITS(2600),&DB,&DT,&INITIAL                             09540002
         GBLA  &ITEMITR,&ITEMFST(20),&ITEMNBR,&ITEMMDX                  09600002
         GBLA  &ITEMNDX(2600),&ITEMXPT                                  09660002
         GBLA  &LABELNR,&LASTCC,&LB,&LBLCTR(100),&LPTR,&LT              09720002
         GBLA  &NRENTS,&SHIFT(2600)                                     09780002
         GBLB  &DIAGITF,&DIAGLIN,&DIAGSET,&DIAGTST,&FSW,&TEST           09840002
         GBLC  &CARRCON,&CSECT,&DSECT,&ITEM(2600)                       09900002
         GBLC  &LABELS(2600),&LBL(100),&NRENTSX                         09960002
         LCLB  &B,&SUB                                                  10020002
         LCLA  &IBITS,&ISHIFT,&K,&T,&CODE,&BYTESP,&OP                   10080002
         LCLC  &S,&LETTER,&ARG                                          10140002
       ACTR  500000                                                     10200002
         AIF   (&DIAGTST EQ 0).NOMSG                                    10260002
         AIF   (&INITIAL EQ 0).NOMSG                                    10320002
         AIF   (&DIAGLIN EQ 1).NOMSG                                    10380002
         MNOTE '**NO LINE ASSOCIATED WITH THIS DATA**'                  10440002
*****THE FOLLOWING GENERATED FOR TEST PURPOSES*****                     10500002
*        LINE                                                           10560002
         LINE                                                           10620002
.NOMSG   ANOP                                                           10680002
         AIF   (K'&SYSLIST(1) EQ K'&SYSLIST(1,1)).LOOP                  10740002
&SUB     SETB  1                                                        10800002
.LOOP    ANOP                                                           10860002
&OP      SETA  &OP+1                                                    10920002
&ARG     SETC  '&SYSLIST(&OP,1)'                                        10980002
         ITEMFIND  &ARG                                                 11040002
         AIF   (&ITEMXPT EQ 0).MEXIT                                    11100002
.FOUND   ANOP                                                           11160002
&ISHIFT  SETA  &SHIFT(&ITEMXPT)                                         11220002
&IBITS   SETA  &BITS(&ITEMXPT)                                          11280002
         AIF   (&ISHIFT EQ 0 OR &ISHIFT EQ 4).ALIGN                     11340002
.ERR     MNOTE '**DATA NOT ALLIGNED ON HEX OR BYTE BOUNDARY**'          11400002
.MEXIT   MEXIT                                                          11460002
.ALIGN   ANOP                                                           11520002
&CODE    SETA  1                                                        11580002
         AIF   (&SUB EQ 1).SUBA                                         11640002
&K       SETA  K'&SYSLIST(3)                                            11700002
         AGO   .SUBB                                                    11760002
.SUBA    ANOP                                                           11820002
&K       SETA  K'&SYSLIST(&OP,3)                                        11880002
.SUBB    ANOP                                                           11940002
         AIF   (&K EQ 1).ERR3                                           12000002
         AIF   (&IBITS-(&IBITS/4)*4 EQ 0).OK                            12060002
         MNOTE '**BIT LENGTH SPECIFICATION INCONSISTENT WITH CONTROL**' 12120002
         MEXIT                                                          12180002
.OK      AIF   (&SUB EQ 1).SUBC                                         12240002
         AIF   ('&SYSLIST(3)' EQ '').USEDEFN                            12300002
&LETTER  SETC  '&SYSLIST(3)'(&K,1)                                      12360002
&S       SETC  '&SYSLIST(3)'(1,&K-1)                                    12420002
         AGO   .SUBD                                                    12480002
.SUBC    ANOP                                                           12540002
         AIF   ('&SYSLIST(&OP,3)' EQ '').USEDEFN                        12600002
&LETTER  SETC  '&SYSLIST(&OP,3)'(&K,1)                                  12660002
&S       SETC  '&SYSLIST(&OP,3)'(1,&K-1)                                12720002
.SUBD    ANOP                                                           12780002
&BYTESP  SETA  &S                                                       12840002
         AIF   ('&LETTER' EQ 'B').BOTH                                  12900002
         AIF   ('&LETTER' EQ 'L').LEFT                                  12960002
         AIF   ('&LETTER' EQ 'R').RIGHT                                 13020002
.ERR3    MNOTE '**PARAMETER 3 INCOMPLETE-DSGEN DEFINITION USED**'       13080002
         AGO   .USEDEFN                                                 13140002
.RIGHT   ANOP                                                           13200002
&CODE    SETA  2                                                        13260002
         AGO   .L                                                       13320002
.LEFT    ANOP                                                           13380002
&CODE    SETA  1                                                        13440002
         AGO   .L                                                       13500002
.USEDEFN ANOP                                                           13560002
&BYTESP  SETA  &IBITS/8                                                 13620002
.BOTH    AIF   (&ISHIFT NE 0).ERR                                       13680002
&CODE    SETA  3                                                        13740002
&T       SETA  &BYTESP*2-1                                              13800002
&S       SETC  '&T'                                                     13860002
.OK2     AIF   (&ISHIFT EQ 0).L                                         13920002
&CODE    SETA  2                                                        13980002
.L       ANOP                                                           14040002
&B       SETB  1                                                        14100002
         AIF   (&SUB EQ 1).SUBE                                         14160002
         AIF   ('&SYSLIST(2)' EQ '').BACKUP                             14220002
&K       SETA  K'&SYSLIST(2)                                            14280002
&B       SETB  ('&SYSLIST(2)'(1,1) EQ 'B')                              14340002
&S       SETC  '&SYSLIST(2)'(&B+1,&K-&B)                                14400002
         AGO   .SUBF                                                    14460002
.SUBE    ANOP                                                           14520002
         AIF   ('&SYSLIST(&OP,2)' EQ '').BACKUP                         14580002
&K       SETA  K'&SYSLIST(&OP,2)                                        14640002
&B       SETB  ('&SYSLIST(&OP,2)'(1,1) EQ 'B')                          14700002
&S       SETC  '&SYSLIST(&OP,2)'(&B+1,&K-&B)                            14760002
.SUBF    ANOP                                                           14820002
.BACKUP  ANOP                                                           14880002
&NRENTS  SETA  &NRENTS+1                                                14940002
         AIF   (&BYTESP GT 0 AND &BYTESP LT 16).SUB0                    15000002
         MNOTE '**NO. OF BYTES OUTSIDE RANGE OF 1-15**'                 15060002
         MEXIT                                                          15120002
.SUB0    AIF   (&SUB EQ 1).SUBG                                         15180002
         DC    AL.12(&SYSLIST(1)-&DSECT),XL.4'A'                        15240002
         AGO   .SUBH                                                    15300002
.SUBG    ANOP                                                           15360002
         DC    AL.12(&SYSLIST(&OP,1)-&DSECT),XL.4'A'                    15420002
.SUBH    ANOP                                                           15480002
         DC    BL.1'&B',FL.7'&S',AL.4(&BYTESP),FL.4'&CODE'              15540002
.OUT     ANOP                                                           15600002
&ITEMXPT     SETA  0                                                    15660002
         AIF   (&SUB EQ 0).OUTA                                         15720002
         AIF   (&OP LT N'&SYSLIST).LOOP                                 15780002
.OUTA    ANOP                                                           15840002
         MEND                                                           15900002
         MACRO                                                          15960002
         BIN   ,                                                        16020002
.*                                 &SYSLIST(&OP,1) - NAME OF LOG ITEM   16080002
.*                                      RECORD DSECT                    16140002
.*                                 $SYSLIST(&OP,2) - NBR OF SPACES      16200002
.*                                      TO SKIP ON MULTIPLE             16260002
.*                                      PRINT OR NBR OF SPACES          16320002
.*                                      TO BACK UP FROM COLUMN FOR      16380002
.*                                      START OF PRINTING. THE LETTER   16440002
.*                                      B PRECEEDS THE NUMBER (B5) IF   16500002
.*                                      THE LATTER IS DESIRED. OMISSION 16560002
.*                                      OF THIS OPERAND FORCES OPTION 2 16620002
.*                                      WITH BACKUP SPACING EQUAL TO    16680002
.*                                 THE NUMBER OF BITS IN THE ITEM       16740002
.*                                 DEFINITION (VIA MACRO 'DSGEN').      16800002
.*                            A LIMIT OF 15 BITS IS IMPOSED FOR THE     16860002
.*                                 TOTAL NUMBER OF BITS TO PRINT.       16920002
         GBLA  &BITS(2600),&DB,&DT,&INITIAL                             16980002
         GBLA  &ITEMITR,&ITEMFST(20),&ITEMNBR,&ITEMMDX                  17040002
         GBLA  &ITEMNDX(2600),&ITEMXPT                                  17100002
         GBLA  &LABELNR,&LASTCC,&LB,&LBLCTR(100),&LPTR,&LT              17160002
         GBLA  &NRENTS,&SHIFT(2600)                                     17220002
         GBLB  &DIAGITF,&DIAGLIN,&DIAGSET,&DIAGTST,&FSW,&TEST           17280002
         GBLC  &CARRCON,&CSECT,&DSECT,&ITEM(2600)                       17340002
         GBLC  &LABELS(2600),&LBL(100),&NRENTSX                         17400002
         LCLB  &B,&SUB                                                  17460002
         LCLA  &IBITS,&ISHIFT,&K                                        17520002
         LCLA  &TEMP,&T,&OP                                             17580002
         LCLC  &S,&ARG                                                  17640002
          ACTR  500000                                                  17700002
         AIF   (&DIAGTST EQ 0).NOMSG                                    17760002
         AIF   (&INITIAL EQ 0).NOMSG                                    17820002
         AIF   (&DIAGLIN EQ 1).NOMSG                                    17880002
         MNOTE '**NO LINE ASSOCIATED WITH THIS DATA**'                  17940002
*****THE FOLLOWING GENERATED FOR TEST PURPOSES*****                     18000002
*        LINE                                                           18060002
         LINE                                                           18120002
.NOMSG   ANOP                                                           18180002
         AIF   (K'&SYSLIST(1) EQ K'&SYSLIST(1,1)).LOOP                  18240002
&SUB     SETB  1                                                        18300002
.LOOP    ANOP                                                           18360002
&OP      SETA  &OP+1                                                    18420002
&ARG     SETC  '&SYSLIST(&OP,1)'                                        18480002
         ITEMFIND &ARG                                                  18540002
         AIF   (&ITEMXPT EQ 0).MEXIT                                    18600002
&ISHIFT  SETA  &SHIFT(&ITEMXPT)                                         18660002
&IBITS   SETA  &BITS(&ITEMXPT)                                          18720002
         AIF   (&SUB EQ 1).SUB00                                        18780002
         AIF   ('&SYSLIST(3)' EQ '').SETT                               18840002
&IBITS   SETA  &SYSLIST(3)                                              18900002
         AGO   .SETT                                                    18960002
.SUB00   AIF   ('&SYSLIST(&OP,3)' EQ '').SETT                           19020002
&IBITS   SETA  &SYSLIST(&OP,3)                                          19080002
.SETT    ANOP                                                           19140002
&T       SETA  &IBITS-1                                                 19200002
&B       SETB  0                                                        19260002
         AIF   (&IBITS GT 0 AND &IBITS LT 16).SUB0                      19320002
         MNOTE '**NO. OF BITS OUTSIDE RANGE OF 1-15**'                  19380002
.MEXIT   MEXIT                                                          19440002
.SUB0    AIF   (&SUB EQ 1).SUBA                                         19500002
         AIF   ('&SYSLIST(2)' EQ '').BACKUP                             19560002
&K       SETA  K'&SYSLIST(2)                                            19620002
&B       SETB  ('&SYSLIST(2)'(1,1) EQ 'B')                              19680002
&S       SETC  '&SYSLIST(2)'(&B+1,&K-&B)                                19740002
         AGO   .SUBB                                                    19800002
.SUBA    ANOP                                                           19860002
         AIF   ('&SYSLIST(&OP,2)' EQ '').BACKUP                         19920002
&K       SETA  K'&SYSLIST(&OP,2)                                        19980002
&B       SETB  ('&SYSLIST(&OP,2)'(1,1) EQ 'B')                          20040002
&S       SETC  '&SYSLIST(&OP,2)'(&B+1,&K-&B)                            20100002
.SUBB    ANOP                                                           20160002
&T       SETA  &S                                                       20220002
.BACKUP  ANOP                                                           20280002
&NRENTS  SETA  &NRENTS+1                                                20340002
&TEMP    SETA  &ISHIFT                                                  20400002
         AIF   (&IBITS NE 1 OR &B NE 0).BIN2                            20460002
         DC    AL.12(&SYSLIST(&OP,1)-&DSECT),XL.4'&TEMP'                20520002
         AGO   .OUT                                                     20580002
         AIF   (&SUB EQ 1).BIN2                                         20640002
         AIF   ('&SYSLIST(2)' NE '').BIN3                               20700002
         AGO   .BIN2A                                                   20760002
.BIN2    AIF   ('&SYSLIST(&OP,2)' NE '').BIN3                           20820002
.BIN2A   ANOP                                                           20880002
&B       SETB  1                                                        20940002
.BIN3    ANOP                                                           21000002
         DC    AL.12(&SYSLIST(&OP,1)-&DSECT),XL.4'C'                    21060002
         DC    BL.1'&B',AL.7(&T),AL.4(&IBITS),FL.4'&ISHIFT'             21120002
.OUT     ANOP                                                           21180002
&ITEMXPT     SETA  0                                                    21240002
         AIF   (&SUB EQ 0).OUTA                                         21300002
         AIF   (&OP LT N'&SYSLIST).LOOP                                 21360002
.OUTA    ANOP                                                           21420002
         MEND                                                           21480002
         MACRO                                                          21540002
&NAME    LINE  &DATA,&LABEL,&SKIP=                                      21600002
.*                            THIS MACRO ESTABLISHES THE MARGINS OR     21660002
.*                                 COLUMN SETTINGS FOR EACH LINE. IT    21720002
.*                                 GENERATES NECESSARY CARRIAGE CONTROL 21780002
.*                                 ENTRIES. LASTLY IT DETERMINES THE    21840002
.*                                 NUMBER OF ENTRIES ASSOCIATED WITH    21900002
.*                                 THE PREVIOUS LINE AND STORES THAT #  21960002
.*                                 INTO THE APPROPRIATE BYTE.           22020002
.*                            &DATA(1) - CHARACTER POSITION TO BEGIN    22080002
.*                                 DATA.                                22140002
.*                            &DATA(2) - # OF SPACES BETWEEN SUCCESSIVE 22200002