         TITLE 'IFCET003  3270 REMOTE BUFFER LOG EDIT'                  00100002
         SPACE 2                                                        00200002
*  LINE MACRO     LINE MACRO     LINE MACRO     LINE MACRO            * 00300002
         MACRO                                                          00400002
&NAME    LINE  &DATA,&LABEL,&SKIP=                                      00500002
.*                            THIS MACRO ESTABLISHES THE MARGINS OR     00600002
.*                                 COLUMN SETTINGS FOR EACH LINE. IT    00700002
.*                                 GENERATES NECESSARY CARRIAGE CONTROL 00800002
.*                                 ENTRIES. LASTLY IT DETERMINES THE    00900002
.*                                 NUMBER OF ENTRIES ASSOCIATED WITH    01000002
.*                                 THE PREVIOUS LINE AND STORES THAT #  01100002
.*                                 INTO THE APPROPRIATE BYTE.           01200002
.*                                 &DATA(1) - CHARACTER POSITION TO     01300002
.*                                 BEGIN DATA.                          01400002
.*                                                                      01500002
.*                                 &DATA(2) - # OF SPACES BETWEEN       01600002
.*                                 SUCCESSIVE DATA COLUMN STARTING      01700002
.*                                 CHARACTERS.                          01800002
.*                                                                      01900002
.*                                 &LABEL(1) - CHARACTER POSITION       02000002
.*                                 TO BEGIN LABELS.                     02100002
.*                                                                      02200002
.*                                 &LABEL(2) - # OF SPACES BETWEEN      02300002
.*                                 LINE'S LABEL STARTING CHARACTERS.    02400002
.*                                                                      02500002
.*                                 &SKIP= - # OF LINES TO ADVANCE       02600002
.*                                 CARRIAGE TO BEGIN NEXT PRINTED LINE. 02700002
.*                                                                      02800002
.*                                 NEW ENTRIES ARE GENERATED ONLY WHEN  02900002
.*                                 NECESSARY. OMISSION OF ITEMS MEANS   03000002
.*                                 THEY HAVE NOT CHANGED SINCE PREVIOUS 03100002
.*                                 SETTINGS. A LINE MACRO IS REQUIRED   03200002
.*                                 FOR EACH PRINTED LINE. IF NO SETTING 03300002
.*                                 CHANGES ARE REQUIRED ALL OPERANDS    03400002
.*                                 ARE OMITTED IN WHICH CASE ONLY THE   03500002
.*                                 # OF ENTRIES FOR THE PREVIOUS LINE   03600002
.*                                 FIRST MACRO INSTRUCTION ISSUED FOR   03700002
.*                                 THE SUBJECT LINE.                    03800002
         GBLA  &DB,&DT,&LB,&LT,&NRENTS                                  03900002
         GBLA  &LASTCC,&INITIAL                                         04000002
         GBLC  &NRENTSX                                                 04100002
         GBLC  &CARRCON                                                 04200002
         GBLB  &TEST                                                    04300002
         LCLA  &S                                                       04400002
&NAME    DS    0C                                                       04500002
         AIF   (&INITIAL EQ 0).FIRSTLN                                  04600002
         LINEND                                                         04700002
         AGO   .NTFIRST                                                 04800002
.FIRSTLN ANOP                                                           04900002
&NRENTSX SETC  'N&SYSNDX'                                               05000002
&INITIAL SETA  1                                                        05100002
&LASTCC  SETA  1                                                        05200002
N&SYSNDX EQU   *                                                        05300002
.NTFIRST ANOP                                                           05400002
         DC    AL1(0)                                                   05500002
         AIF   ('&DATA(1)' EQ '').CKDTABS                               05600002
         AIF   ('&DATA'(1,1) NE '(').SLABEL                             05700002
         AIF   (&DATA(1) EQ &DB).CKDTABS                                05800002
&DB      SETA  &DATA(1)                                                 05900002
         AGO   .AA                                                      06000002
.CKDTABS AIF   ('&DATA(2)' EQ '').NCDATA                                06100002
         AIF   (&DATA(2) EQ &DT).NCDATA                                 06200002
         AGO   .CC                                                      06300002
.AA      AIF   ('&DATA(2)' EQ '').BB                                    06400002
         AIF   (&DATA(2) EQ &DT).BB                                     06500002
.CC      ANOP                                                           06600002
&DT      SETA  &DATA(2)                                                 06700002
.BB      DC    XL2'FFFE'                                                06800002
         DC    FL1'&DB'                                                 06900002
         DC    FL1'&DT'                                                 07000002
&NRENTS  SETA  &NRENTS+1                                                07100002
.NCDATA  ANOP                                                           07200002
         AIF   ('&LABEL(1)' EQ '').CKLTABS                              07300002
         AIF   ('&LABEL'(1,1) NE '(').SLABEL                            07400002
         AIF   (&LABEL(1) EQ &LB).CKLTABS                               07500002
&LB      SETA  &LABEL(1)                                                07600002
         AGO   .AAA                                                     07700002
.CKLTABS AIF   ('&LABEL(2)' EQ '').NCLABEL                              07800002
         AIF   (&LABEL(2) EQ &LT).NCLABEL                               07900002
         AGO   .CCC                                                     08000002
.AAA     AIF   ('&LABEL(2)' EQ '').BBB                                  08100002
         AIF   (&LABEL(2) EQ &LT).BBB                                   08200002
.CCC     ANOP                                                           08300002
&LT      SETA  &LABEL(2)                                                08400002
.BBB     DC    XL2'FFFF'                                                08500002
         DC    FL1'&LB'                                                 08600002
         DC    FL1'&LT'                                                 08700002
&NRENTS  SETA  &NRENTS+1                                                08800002
.NCLABEL ANOP                                                           08900002
         AIF   ('&SKIP' EQ 'E').EJECT                                   09000002
         AIF   ('&SKIP' EQ '').TESTOFF                                  09100002
.CONT    ANOP                                                           09200002
         AIF   (&TEST EQ 0).AB                                          09300002
         AIF   (&SKIP EQ &LASTCC).TESTOFF                               09400002
&S       SETA  &SKIP                                                    09500002
         ORG   &CARRCON+3                                               09600002
         DC    AL.3(0),AL.2(&S),AL.3(1)                                 09700002
         ORG                                                            09800002
&LASTCC  SETA  &S                                                       09900002
.SLABEL  ANOP                                                           10000002
.TESTOFF ANOP                                                           10100002
&TEST    SETB  0                                                        10200002
         AGO   .DD                                                      10300002
.EJECT   DC    XL2'FFFB'                                                10400002
&NRENTS  SETA  &NRENTS+1                                                10500002
         DC    X'8B'              SKIP TO CHANNEL 1                     10600002
         DC    AL.3(0),AL.2(&LASTCC),AL.3(1)                            10700002
&TEST    SETB  1                                                        10800002
         AGO   .DD                                                      10900002
.AB      AIF   (&SKIP EQ &LASTCC).NOCHANG                               11000002
A&SYSNDX DC    XL2'FFFB'                                                11100002
         DC    AL.3(0),AL.2(&SKIP),AL.3(1)                              11200002
         DC    AL.3(0),AL.2(&SKIP),AL.3(1)                              11300002
&LASTCC  SETA  &SKIP                                                    11400002
&TEST    SETB  1                                                        11500002
&CARRCON SETC  'A&SYSNDX'                                               11600002
&NRENTS  SETA  &NRENTS+1                                                11700002
.DD      ANOP                                                           11800002
.NOCHANG ANOP                                                           11900002
         MEND                                                           12000002
         EJECT                                                          12100002
         SPACE 2                                                        12200002
*  ROUTINE MACRO     ROUTINE MACRO     ROUTINE MACRO     ROUTINE MACRO* 12300002
         MACRO                                                          12400002
&NAME    ROUTINE &LOGITEM,&RNAME                                        12500002
         GBLC  &DSECT,&CSECT                                            12600002
         GBLC  &ITEM(1000)                                              12700002
         GBLA  &SHIFT(1000),&ITEMNBR                                    12800002
         GBLA  &NRENTS                                                  12900002
         LCLA  &ISHIFT,&NDX                                             13000002
.LOOP    ANOP                                                           13100002
&NDX     SETA  &NDX+1                                                   13200002
         AIF   ('&ITEM(&NDX)' EQ '&LOGITEM').FOUND                      13300002
         AIF   (&NDX LT &ITEMNBR).LOOP                                  13400002
         MNOTE *,'LOG ITEM NOT DEFINED'                                 13500002
         MEXIT                                                          13600002
.FOUND   ANOP                                                           13700002
&ISHIFT  SETA  &SHIFT(&NDX)                                             13800002
&NAME    DC    AL.12(&LOGITEM-&DSECT),XL.4'D'                           13900002
         DC    AL.4(&ISHIFT),AL.12(&RNAME-&CSECT)                       14000002
&NRENTS  SETA  &NRENTS+1                                                14100002
         MEND                                                           14200002
*  DSGEN MACRO     DSGEN MACRO     DSGEN MACRO     DSGEN MACRO        * 14300002
         SPACE 2                                                        14400002
         MACRO                                                          14500002
&NAME    DSGEN &X1,&X2,&X3,&X4,&X5,&X6,&X7,&X8,&X9,&X10,&X11,&X12,&X13,X14600002
               &X14,&X15,&X16,&X17,&X18,&X19,&X20,&X21,&X22,&X23,&X24, X14700002
               &X25,&X26,&X27,&X28,&X29,&X30,&X31,&X32                  14800002
.*                            THIS MACRO GENERATES ONE DSECT WORD       14900002
.*                                 FORMATTED FOR THE SUBJECT LOG RECORD 15000002
.*                                 EACH OPERAND HAS TWO SUB LISTS. THE  15100002
.*                                 FIRST IS THE NAME OF THE LOG ITEM    15200002
.*                                 WHILE THE SECOND IS THE # OF BITS TO 15300002
.*                                 ALLOCATE FOR THIS ITEM. ITEMS MUST   15400002
.*                                 BE DEFINED CONTIGUOUSLY WITHOUT GAPS 15500002
.*                                 UNUSED BIT GROUPS MUST BE GIVEN      15600002
.*                                 DUMMY NAMES. THE NAMES PROVIDED FOR  15700002
.*                                 THE LOG ITEMS MAY THEN BE USED IN    15800002
.*                                 THE CONVERSION MACRO INSTRUCTIONS.   15900002
         GBLC &ITEM(1000)                                               16000002
         GBLA &ITEMNBR,&BITS(1000),&SHIFT(1000)                         16100002
         LCLC  &SYMBOL                                                  16200002
         LCLA  &OP,&COUNT,&BYTE                                         16300002
.LOOP    ANOP                                                           16400002
&OP      SETA  &OP+1                                                    16500002
&ITEMNBR SETA  &ITEMNBR+1                                               16600002
&SYMBOL  SETC  '&SYSLIST(&OP,1)'                                        16700002
         AIF   ('&SYSLIST(&OP,2)' NE '').OK1                            16800002
         MNOTE *,'NULL BIT COUNT FIELD'                                 16900002
         MEXIT                                                          17000002
.OK1     ANOP                                                           17100002
         AIF   ('&SYMBOL' NE '').OK                                     17200002
         MNOTE 'LOG ITEM SYMBOL NOT PROVIDED'                           17300002
         AGO   .CNT                                                     17400002
.OK      ANOP                                                           17500002
         AIF   ('&SYMBOL'(1,1) EQ '''').CNT                *TEMP*       17600002
&SYMBOL  EQU   *+&BYTE                                                  17700002
&ITEM(&ITEMNBR)  SETC '&SYSLIST(&OP,1)'                                 17800002
&BITS(&ITEMNBR) SETA &SYSLIST(&OP,2)                                    17900002
&SHIFT(&ITEMNBR) SETA &COUNT-&BYTE*8                                    18000002
.CNT     ANOP                                                           18100002
&COUNT   SETA  &COUNT+&SYSLIST(&OP,2)                                   18200002
&BYTE    SETA  &COUNT/8                                                 18300002
         AIF (&OP LT N'&SYSLIST).LOOP                                   18400002
         AIF   (&COUNT NE 32).NOT32                                     18500002
&NAME    DS    4C                                                       18600002
         MEXIT                                                          18700002
.NOT32   AIF   (&COUNT NE 64).ERR                                       18800002
&NAME    DS    8C                                                       18900002
         MEXIT                                                          19000002
.ERR     MNOTE '**BIT COUNT FIELDS DO NOT TOTAL 32 OR 64**'             19100002
         MEND                                                           19200002
         MACRO                                                          19300002
         LINEND                                                         19400002
.*                            THIS MACRO IS USED ONLY BY THE LINE       19500002
.*                                 MACRO TO SET THE NUMBER OF ENTRIES   19600002
.*                                 ASSOCIATED WITH EACH LINE.           19700002
         GBLA  &NRENTS                                                  19800002
         GBLC &NRENTSX                                                  19900002
         ORG   &NRENTSX                                                 20000002
         DC    FL1'&NRENTS'                                             20100002
         ORG                                                            20200002
&NRENTS  SETA  0                                                        20300002
B&SYSNDX EQU   *                                                        20400002
&NRENTSX SETC  'B&SYSNDX'                                               20500002
         MEND                                                           20600002
         SPACE 2                                                        20700002
         EJECT                                                          20800002
*  LABEL MACRO     LABEL MACRO     LABEL MACRO     LABEL MACRO        * 20900002
         SPACE 2                                                        21000002
         MACRO                                                          21100002
&NAME    LABEL &LABEL1,&LABEL2,&LABEL3,&LABEL4,&LABEL5,&LABEL6,        C21200002
               &LABEL7,&LABEL8                                          21300002
.*                            THIS MACRO ALLOWS UP TO ACHT LABELS TO    21400002
.*                                 BE SPECIFIED FOR A GIVEN LINE. THE   21500002
.*                                 LABELS SHOULD BE ENCLOSED IN QUOTA-  21600002
.*                                 TION MARKS. THE COLUMN AND LINE END  21700002
.*                                 CONTROLS WILL BE INSERTED BY THE     21800002
.*                                 MACRO. OMITTED OPERANDS MEAN NO      21900002
.*                                 LABEL REQUIRED FOR RESPECTIVE        22000002
.*                                 COLUMN. THIS MACRO WILL ALSO ALERT   22100002
.*                                 THE PROGRAMMER TO EXACTLY WHERE THE  22200002
.*                                 TABLE MUST BE BROKEN IF NECESSARY    22300002
.*                                 TO AVOID EXCEEDING THE MAXIMUM LIMIT 22400002
         GBLC &LABELS(2000)                                             22500002
         GBLC  &LBL(100)                                                22600002
         GBLA  &LBLCTR(100)                                             22700002
         GBLA  &LABELNR                                                 22800002
         GBLA  &NRENTS,&LPTR                                            22900002
         LCLC  &MARGIN,&TACK                                            23000002
         LCLC  &TEXT                                                    23100002
         LCLA  &OP,&K,&START,&NRCHAR,&REMAIN                            23200002
&MARGIN  SETC  '*'                                                      23300002
         AIF   ('&NAME' EQ '').LOOPOUT                                  23400002
&LPTR    SETA  &LPTR+1                                                  23500002
&LBL(&LPTR) SETC '&NAME'                                                23600002
&LBLCTR(&LPTR) SETA &LABELNR+1                                          23700002
.LOOPOUT ANOP                                                           23800002
&OP      SETA  &OP+1                                                    23900002
&K       SETA  K'&SYSLIST(&OP)                                          24000002
         AIF (&K GE 2).NORM                                             24100002
&K       SETA  2                                                        24200002
.NORM    ANOP                                                           24300002
&START   SETA  2                                                        24400002
         AIF (&OP LT N'&SYSLIST).NOTLAST                                24500002
&MARGIN  SETC  '$'                                                      24600002
.NOTLAST ANOP                                                           24700002
&NRCHAR  SETA  8                                                        24800002
&TACK    SETC  ''                                                       24900002
.LOOPIN  ANOP                                                           25000002
&REMAIN  SETA  &K-&START                                                25100002
         AIF (&REMAIN GE 8).MORE                                        25200002
&TACK    SETC  '&MARGIN'                                                25300002
&NRCHAR  SETA  &REMAIN                                                  25400002
.MORE    ANOP                                                           25500002
&TEXT    SETC  ''                                                       25600002
         AIF (&REMAIN EQ 0).ENDTEXT                                     25700002
&TEXT    SETC  '&SYSLIST(&OP)'(&START,&NRCHAR)                          25800002
.ENDTEXT ANOP                                                           25900002
&LABELNR SETA  &LABELNR+1                                               26000002
&LABELS(&LABELNR) SETC '&TEXT'.'&TACK'                                  26100002
&START   SETA  &START+8                                                 26200002
         AIF ('&TACK' EQ '').LOOPIN                                     26300002
         AIF ('&TACK' EQ '*').LOOPOUT                                   26400002
         MEND                                                           26500002
         SPACE 2                                                        26600002
         MACRO                                                          26700002
         LSTART                                                         26800002
.*                            THIS MACRO IS ISSUED WHEN THE LABEL AREA  26900002
.*                                 OF THE TABLE IS TO BEGIN.            27000002
         GBLC &LABELS(2000)                                             27100002
         GBLA  &LABELNR                                                 27200002
         GBLC  &LBL(100)                                                27300002
         GBLA  &LBLCTR(100)                                             27400002
         LCLA  &NDX,&CTR                                                27500002
         LINEND                                                         27600002
&CTR     SETA  1                                                        27700002
.LOOP    ANOP                                                           27800002
&NDX     SETA  &NDX+1                                                   27900002
         AIF   (&LBLCTR(&CTR) NE &NDX).NOLBL                            28000002
&LBL(&CTR) DC  C'&LABELS(&NDX)'                                         28100002
&CTR     SETA  &CTR+1                                                   28200002
         AGO   .LOOPCTL                                                 28300002
.NOLBL   ANOP                                                           28400002
         DC    C'&LABELS(&NDX)'                                         28500002
.LOOPCTL AIF   (&NDX LT &LABELNR).LOOP                                  28600002
         MEND                                                           28700002
         SPACE 2                                                        28800002
*  BIN MACRO     BIN MACRO     BIN MACRO     BIN MACRO     BIN MACRO  * 28900002
         SPACE 2                                                        29000002
         MACRO                                                          29100002
         BIN   &LOGITEM,&SKIP$OR                                        29200002
.*                                 &LOGITEM - NAME OF ITEM IN LOG       29300002
.*                                      RECORD DSECT                    29400002
.*                                 &SKIP$OR - NBR OF SPACES TO SKIP ON  29500002
.*                                 MULTIPLE PRINT OR NBR OF SPACES      29600002
.*                                      TO BACK UP FROM COLUMN FOR      29700002
.*                                      START OF PRINTING. THE LETTER   29800002
.*                                      B PRECEEDS THE NUMBER (B5) IF   29900002
.*                                      THE LATTER IS DESIRED. OMISSION 30000002
.*                                      OF THIS OPERAND FORCES OPTION 2 30100002
.*                                      WITH BACKUP SPACING EQUAL TO    30200002
.*                                 THE NUMBER OF BITS IN THE ITEM       30300002
.*                                 DEFINITION (VIA MACRO 'DSGEN').      30400002
.*                            A LIMIT OF 15 BITS IS IMPOSED FOR THE     30500002
.*                                 TOTAL NUMBER OF BITS TO PRINT.       30600002
         GBLC &ITEM(1000)                                               30700002
         GBLA &ITEMNBR,&BITS(1000),&SHIFT(1000),&NRENTS                 30800002
         GBLC  &DSECT                                                   30900002
         LCLB  &B                                                       31000002
         LCLA  &IBITS,&NDX,&ISHIFT,&K                                   31100002
         LCLA  &TEMP,&T                                                 31200002
         LCLC  &S                                                       31300002
.LOOP    ANOP                                                           31400002
&NDX     SETA  &NDX+1                                                   31500002
         AIF   ('&ITEM(&NDX)' EQ '&LOGITEM').FOUND                      31600002
         AIF   (&NDX LT &ITEMNBR).LOOP                                  31700002
         MNOTE *,'YOU BLEW IT'                                          31800002
         ROUTINE DUM,SKIPPER                                            31900002
         MEXIT                                                          32000002
.FOUND   ANOP                                                           32100002
&ISHIFT  SETA  &SHIFT(&NDX)                                             32200002
&IBITS   SETA  &BITS(&NDX)                                              32300002
&T       SETA  &IBITS-1                                                 32400002
&B       SETB  0                                                        32500002
         AIF   ('&SKIP$OR' EQ '').BACKUP                                32600002
&K       SETA  K'&SKIP$OR                                               32700002
&B       SETB  ('&SKIP$OR'(1,1) EQ 'B')                                 32800002
&S       SETC  '&SKIP$OR'(&B+1,&K-&B)                                   32900002
&T       SETA  &S                                                       33000002
.BACKUP  ANOP                                                           33100002
&NRENTS  SETA  &NRENTS+1                                                33200002
&TEMP    SETA  &ISHIFT                                                  33300002
A&SYSNDX DC    AL.12(&LOGITEM-&DSECT),XL.4'&TEMP'                       33400002
         AIF (&IBITS EQ 1 AND &B EQ 0).OUT                              33500002
         ORG   A&SYSNDX                                                 33600002
&B       SETB  1                                                        33700002
         DC    AL.12(&LOGITEM-&DSECT),XL.4'C'                           33800002
         DC    BL.1'&B',AL.7(&T),AL.4(&IBITS),FL.4'&ISHIFT'             33900002
.OUT     ANOP                                                           34000002
         MEND                                                           34100002
         EJECT                                                          34200002
*  HEX MACRO     HEX MACRO     HEX MACRO    HEXN MACRO     HEX MACRO  * 34300002
         SPACE 2                                                        34400002
         MACRO                                                          34500002
         HEX   &LOGITEM,&SKIP$OR,&BYTES                                 34600002
.*                            THIS MACRO FACILITATES GENERATION OF THE  34700002
.*                                 TABLE ENTRIES SPECIFYING HEX TYPE    34800002
.*                                 CONVERSIONS.                         34900002
.*                            &LOGITEM - NAME OF DATA ITEM TO BE        35000002
.*                                 CONVERTED                            35100002
.*                            &SKIP$OR - NUMBER OF SPACES TO SKIP ON    35200002
.*                                 MULTIPLE PRINT OR NBR OF SPACES TO   35300002
.*                                 BACK UP FROM COLUMN FOR START OF     35400002
.*                                 PRINTING. THE LETTER B PRECEEDS THE  35500002
.*                                 NUMBER (B8) IF THE LATTER OPTION IS  35600002
.*                                 DESIRED. OMISSION OF THIS OPERAND    35700002
.*                                 FORCES OPTION 2 WITH BACKUP SPACING  35800002
.*                                 EQUAL TO THE NUMBER OF BYTES SPECI-  35900002
.*                                 FIED BY THE NEXT OPERAND (TWICE THIS 36000002
.*                                 NUMBER IF SUFFIX IS EXPLICITLY OR    36100002
.*                                 IMPLICITLY B).                       36200002
.*                            &BYTES - NUMBER OF TOTAL INPUT BYTES TO   36300002
.*                                 PROCESS. THIS NUMBER IS SUFFIXED     36400002
.*                                 WITH AN L,R, OR B TO STIPULATE       36500002
.*                                 PRINTING OF THE LEFT HALF, RIGHT     36600002
.*                                 HALF, OR BOTH HALVES OF THE BYTE     36700002
.*                                 RESPECTIVELY. OMISSION OF THIS       36800002
.*                                 OPERAND DEFAULTS TO B WITH THE NUM-  36900002
.*                                 BER OF BYTES EQUAL TO THE ITEM LNGTH 37000002