         TITLE 'IFCST005 SUMMARY FOR 3705 27RN'                         00090020
         MACRO                                                          00180020
&NAME    DSGEN &X1,&X2,&X3,&X4,&X5,&X6,&X7,&X8,&X9,&X10,&X11,&X12,&X13,X00270020
               &X14,&X15,&X16,&X17,&X18,&X19,&X20,&X21,&X22,&X23,&X24, X00360020
               &X25,&X26,&X27,&X28,&X29,&X30,&X31,&X32                  00450020
.*                            THIS MACRO GENERATES ONE DSECT WORD       00540020
.*                                 FORMATTED FOR THE SUBJECT LOG RECORD 00630020
.*                                 EACH OPERAND HAS TWO SUB LISTS. THE  00720020
.*                                 FIRST IS THE NAME OF THE LOG ITEM    00810020
.*                                 WHILE THE SECOND IS THE # OF BITS TO 00900020
.*                                 ALLOCATE FOR THIS ITEM. ITEMS MUST   00990020
.*                                 BE DEFINED CONTIGUOUSLY WITHOUT GAPS 01080020
.*                                 UNUSED BIT GROUPS MUST BE GIVEN      01170020
.*                                 DUMMY NAMES. THE NAMES PROVIDED FOR  01260020
.*                                 THE LOG ITEMS MAY THEN BE USED IN    01350020
.*                                 THE CONVERSION MACRO INSTRUCTIONS.   01440020
         GBLC &ITEM(1000)                                               01530020
         GBLA &ITEMNBR,&BITS(1000),&SHIFT(1000)                         01620020
         LCLC  &SYMBOL                                                  01710020
         LCLA  &OP,&COUNT,&BYTE                                         01800020
.LOOP    ANOP                                                           01890020
&OP      SETA  &OP+1                                                    01980020
&ITEMNBR SETA  &ITEMNBR+1                                               02070020
&SYMBOL  SETC  '&SYSLIST(&OP,1)'                                        02160020
         AIF   ('&SYSLIST(&OP,2)' NE '').OK1                            02250020
         MNOTE *,'NULL BIT COUNT FIELD'                                 02340020
         MEXIT                                                          02430020
.OK1     ANOP                                                           02520020
         AIF   ('&SYMBOL' NE '').OK                                     02610020
         MNOTE 'LOG ITEM SYMBOL NOT PROVIDED'                           02700020
         AGO   .CNT                                                     02790020
.OK      ANOP                                                           02880020
         AIF   ('&SYMBOL'(1,1) EQ '''').CNT                *TEMP*       02970020
&SYMBOL  EQU   *+&BYTE                                                  03060020
&ITEM(&ITEMNBR)  SETC '&SYSLIST(&OP,1)'                                 03150020
&BITS(&ITEMNBR) SETA &SYSLIST(&OP,2)                                    03240020
&SHIFT(&ITEMNBR) SETA &COUNT-&BYTE*8                                    03330020
.CNT     ANOP                                                           03420020
&COUNT   SETA  &COUNT+&SYSLIST(&OP,2)                                   03510020
&BYTE    SETA  &COUNT/8                                                 03600020
         AIF (&OP LT N'&SYSLIST).LOOP                                   03690020
         AIF   (&COUNT NE 32).NOT32                                     03780020
&NAME    DS    4C                                                       03870020
         MEXIT                                                          03960020
.NOT32   AIF   (&COUNT NE 64).ERR                                       04050020
&NAME    DS    8C                                                       04140020
         MEXIT                                                          04230020
.ERR     MNOTE '**BIT COUNT FIELDS DO NOT TOTAL 32 OR 64**'             04320020
         MEND                                                           04410020
         EJECT                                                          04500020
         MACRO                                                          04590020
&NAME    LINE  &DATA,&LABEL,&SKIP=                                      04680020
.*                            THIS MACRO ESTABLISHES THE MARGINS OR     04770020
.*                                 COLUMN SETTINGS FOR EACH LINE. IT    04860020
.*                                 GENERATES NECESSARY CARRIAGE CONTROL 04950020
.*                                 ENTRIES. LASTLY IT DETERMINES THE    05040020
.*                                 NUMBER OF ENTRIES ASSOCIATED WITH    05130020
.*                                 THE PREVIOUS LINE AND STORES THAT #  05220020
.*                                 INTO THE APPROPRIATE BYTE.           05310020
.*                            &DATA(1) - CHARACTER POSITION TO BEGIN    05400020
.*                                 DATA.                                05490020
.*                            &DATA(2) - # OF SPACES BETWEEN SUCCESSIVE 05580020
.*                                 DATA COLUMN STARTING CHARACTERS.     05670020
.*                            &LABEL(1) - CHAR. POS. TO BEGIN LABELS.   05760020
.*                            &LABEL(2) - # SPACES BETWEEN LINE'S LABEL 05850020
.*                                 STARTING CHARACTERS.                 05940020
.*                            &SKIP= - # OF LINES TO ADVANCE CARRIAGE   06030020
.*                                 TO BEGIN NEXT PRINTED LINE.          06120020
.*                            NEW ENTRIES ARE GENERATED ONLY WHEN       06210020
.*                                 NECESSARY. OMISSION OF ITEMS MEANS   06300020
.*                                 THEY HAVE NOT CHANGED SINCE PREVIOUS 06390020
.*                                 SETTINGS. A LINE MACRO IS REQUIRED   06480020
.*                                 FOR EACH PRINTED LINE. IF NO SETTING 06570020
.*                                 CHANGES ARE REQUIRED ALL OPERANDS    06660020
.*                                 ARE OMITTED IN WHICH CASE ONLY THE   06750020
.*                                 # OF ENTRIES FOR THE PREVIOUS LINE   06840020
.*                                 IS COMPUTED. THIS MACRO MUST BE THE  06930020
.*                                 FIRST MACRO INSTRUCTION ISSUED FOR   07020020
.*                                 THE SUBJECT LINE                     07110020
         GBLA  &DB,&DT,&LB,&LT,&NRENTS                                  07200020
         GBLA  &LASTCC,&INITIAL                                         07290020
         GBLC  &NRENTSX                                                 07380020
         GBLC  &CARRCON                                                 07470020
         GBLB  &TEST                                                    07560020
         LCLA  &S                                                       07650020
&NAME    DS    0C                                                       07740020
         AIF   (&INITIAL EQ 0).FIRSTLN                                  07830020
         LINEND                                                         07920020
         AGO   .NTFIRST                                                 08010020
.FIRSTLN ANOP                                                           08100020
&NRENTSX SETC  'N&SYSNDX'                                               08190020
&INITIAL SETA  1                                                        08280020
N&SYSNDX EQU   *                                                        08370020
.NTFIRST ANOP                                                           08460020
         DC    AL1(0)                                                   08550020
         AIF   ('&DATA(1)' EQ '').CKDTABS                               08640020
         AIF   (&DATA(1) EQ &DB).CKDTABS                                08730020
&DB      SETA  &DATA(1)                                                 08820020
         AGO   .AA                                                      08910020
.CKDTABS AIF   ('&DATA(2)' EQ '').NCDATA                                09000020
         AIF   (&DATA(2) EQ &DT).NCDATA                                 09090020
         AGO   .CC                                                      09180020
.AA      AIF   ('&DATA(2)' EQ '').BB                                    09270020
         AIF   (&DATA(2) EQ &DT).BB                                     09360020
.CC      ANOP                                                           09450020
&DT      SETA  &DATA(2)                                                 09540020
.BB      DC    XL2'FFFE'                                                09630020
         DC    FL1'&DB'                                                 09720020
         DC    FL1'&DT'                                                 09810020
&NRENTS  SETA  &NRENTS+1                                                09900020
.NCDATA  ANOP                                                           09990020
         AIF   ('&LABEL(1)' EQ '').CKLTABS                              10080020
         AIF   (&LABEL(1) EQ &LB).CKLTABS                               10170020
&LB      SETA  &LABEL(1)                                                10260020
         AGO   .AAA                                                     10350020
.CKLTABS AIF   ('&LABEL(2)' EQ '').NCLABEL                              10440020
         AIF   (&LABEL(2) EQ &LT).NCLABEL                               10530020
         AGO   .CCC                                                     10620020
.AAA     AIF   ('&LABEL(2)' EQ '').BBB                                  10710020
         AIF   (&LABEL(2) EQ &LT).BBB                                   10800020
.CCC     ANOP                                                           10890020
&LT      SETA  &LABEL(2)                                                10980020
.BBB     DC    XL2'FFFF'                                                11070020
         DC    FL1'&LB'                                                 11160020
         DC    FL1'&LT'                                                 11250020
&NRENTS  SETA  &NRENTS+1                                                11340020
.NCLABEL ANOP                                                           11430020
         AIF   ('&SKIP' NE '').CONT                                     11520020
         AIF   (&TEST EQ 0).NOCHANG                                     11610020
&S       SETA  &LASTCC                                                  11700020
         AGO   .DEFAULT                                                 11790020
.CONT    ANOP                                                           11880020
         AIF   (&TEST EQ 0).AB                                          11970020
&S       SETA  &SKIP                                                    12060020
.DEFAULT ANOP                                                           12150020
         ORG   &CARRCON+3                                               12240020
         DC    AL.3(0),AL.2(&S),AL.3(1)                                 12330020
         ORG                                                            12420020
&LASTCC  SETA  &S                                                       12510020
&TEST    SETB  0                                                        12600020
         AGO   .DD                                                      12690020
.AB      AIF   (&SKIP EQ &LASTCC).NOCHANG                               12780020
A&SYSNDX DC    XL2'FFFB'                                                12870020
         DC    AL.3(0),AL.2(&SKIP),AL.3(1)                              12960020
         DC    FL1'9'                                                   13050020
&LASTCC  SETA  &SKIP                                                    13140020
&TEST    SETB  1                                                        13230020
&CARRCON SETC  'A&SYSNDX'                                               13320020
&NRENTS  SETA  &NRENTS+1                                                13410020
.DD      ANOP                                                           13500020
.NOCHANG ANOP                                                           13590020
         MEND                                                           13680020
         EJECT                                                          13770020
         MACRO                                                          13860020
&NAME    ROUTINE &LOGITEM,&RNAME                                        13950020
         GBLA  &NRENTS                                                  14040020
         GBLC  &DSECT,&CSECT                                            14130020
&NAME    DC    AL.12(&LOGITEM-&DSECT),XL.4'D'                           14220020
         DC    AL2(&RNAME-&CSECT)                                       14310020
&NRENTS  SETA  &NRENTS+1                                                14400020
         MEND                                                           14490020
         EJECT                                                          14580020
         MACRO                                                          14670020
&NAME    LABEL &LABEL1,&LABEL2,&LABEL3,&LABEL4,&LABEL5,&LABEL6,        C14760020
               &LABEL7,&LABEL8                                          14850020
.*                            THIS MACRO ALLOWS UP TO ACHT LABELS TO    14940020
.*                                 BE SPECIFIED FOR A GIVEN LINE. THE   15030020
.*                                 LABELS SHOULD BE ENCLOSED IN QUOTA-  15120020
.*                                 TION MARKS. THE COLUMN AND LINE END  15210020
.*                                 CONTROLS WILL BE INSERTED BY THE     15300020
.*                                 MACRO. OMITTED OPERANDS MEAN NO      15390020
.*                                 LABEL REQUIRED FOR RESPECTIVE        15480020
.*                                 COLUMN. THIS MACRO WILL ALSO ALERT   15570020
.*                                 THE PROGRAMMER TO EXACTLY WHERE THE  15660020
.*                                 TABLE MUST BE BROKEN IF NECESSARY    15750020
.*                                 TO AVOID EXCEEDING THE MAXIMUM LIMIT 15840020
         GBLC &LABELS(2000)                                             15930020
         GBLC  &LBL(100)                                                16020020
         GBLA  &LBLCTR(100)                                             16110020
         GBLA  &LABELNR                                                 16200020
         GBLA  &NRENTS,&LPTR                                            16290020
         LCLC  &MARGIN,&TACK                                            16380020
         LCLC  &TEXT                                                    16470020
         LCLA  &OP,&K,&START,&NRCHAR,&REMAIN                            16560020
&MARGIN  SETC  '*'                                                      16650020
         AIF   ('&NAME' EQ '').LOOPOUT                                  16740020
&LPTR    SETA  &LPTR+1                                                  16830020
&LBL(&LPTR) SETC '&NAME'                                                16920020
&LBLCTR(&LPTR) SETA &LABELNR+1                                          17010020
.LOOPOUT ANOP                                                           17100020
&OP      SETA  &OP+1                                                    17190020
&K       SETA  K'&SYSLIST(&OP)                                          17280020
         AIF (&K GE 2).NORM                                             17370020
&K       SETA  2                                                        17460020
.NORM    ANOP                                                           17550020
&START   SETA  2                                                        17640020
         AIF (&OP LT N'&SYSLIST).NOTLAST                                17730020
&MARGIN  SETC  '$'                                                      17820020
.NOTLAST ANOP                                                           17910020
&NRCHAR  SETA  8                                                        18000020
&TACK    SETC  ''                                                       18090020
.LOOPIN  ANOP                                                           18180020
&REMAIN  SETA  &K-&START                                                18270020
         AIF (&REMAIN GE 8).MORE                                        18360020
&TACK    SETC  '&MARGIN'                                                18450020
&NRCHAR  SETA  &REMAIN                                                  18540020
.MORE    ANOP                                                           18630020
&TEXT    SETC  ''                                                       18720020
         AIF (&REMAIN EQ 0).ENDTEXT                                     18810020
&TEXT    SETC  '&SYSLIST(&OP)'(&START,&NRCHAR)                          18900020
.ENDTEXT ANOP                                                           18990020
&LABELNR SETA  &LABELNR+1                                               19080020
&LABELS(&LABELNR) SETC '&TEXT'.'&TACK'                                  19170020
&START   SETA  &START+8                                                 19260020
         AIF ('&TACK' EQ '').LOOPIN                                     19350020
         AIF ('&TACK' EQ '*').LOOPOUT                                   19440020
         MEND                                                           19530020
         EJECT                                                          19620020
         MACRO                                                          19710020
         LSTART                                                         19800020
.*                            THIS MACRO IS ISSUED WHEN THE LABEL AREA  19890020
.*                                 OF THE TABLE IS TO BEGIN.            19980020
         GBLC &LABELS(2000)                                             20070020
         GBLA  &LABELNR                                                 20160020
         GBLC  &LBL(100)                                                20250020
         GBLA  &LBLCTR(100)                                             20340020
         LCLA  &NDX,&CTR                                                20430020
         LINEND                                                         20520020
&CTR     SETA  1                                                        20610020
.LOOP    ANOP                                                           20700020
&NDX     SETA  &NDX+1                                                   20790020
         AIF   (&LBLCTR(&CTR) NE &NDX).NOLBL                            20880020
&LBL(&CTR) DC  C'&LABELS(&NDX)'                                         20970020
&CTR     SETA  &CTR+1                                                   21060020
         AGO   .LOOPCTL                                                 21150020
.NOLBL   ANOP                                                           21240020
         DC    C'&LABELS(&NDX)'                                         21330020
.LOOPCTL AIF   (&NDX LT &LABELNR).LOOP                                  21420020
         MEND                                                           21510020
         EJECT                                                          21600020
         MACRO                                                          21690020
         LINEND                                                         21780020
.*                            THIS MACRO IS USED ONLY BY THE LINE       21870020
.*                                 MACRO TO SET THE NUMBER OF ENTRIES   21960020
.*                                 ASSOCIATED WITH EACH LINE.           22050020
         GBLA  &NRENTS                                                  22140020
         GBLC &NRENTSX                                                  22230020
         ORG   &NRENTSX                                                 22320020
         DC    FL1'&NRENTS'                                             22410020
         ORG                                                            22500020
&NRENTS  SETA  0                                                        22590020
B&SYSNDX EQU   *                                                        22680020
&NRENTSX SETC  'B&SYSNDX'                                               22770020
         MEND                                                           22860020
         EJECT                                                          22950020
         MACRO                                                          23040020
         SUM   &LOGITEM,&MASK                                           23130020
.*                            THIS MACRO GENERATES A NORMAL EDIT ENTRY  23220020
.*                                 FOR PROCESSING BY THE SUMMARY MODULE 23310020
.*                            &LOGITEM - NAME OF DATA ITEM TO BE SUMMED 23400020
.*                            &MASK - BYTE MASK FOR BITS TO BE TESTED.  23490020
.*                                 THIS OPERAND SHOULD BE OMITTED FOR   23580020
.*                                 SINGLE BIT ITEMS IN WHICH CASE THE   23670020
.*                                 MASK WILL BE SET ACCORDING TO THE    23760020
.*                                 OFF BYTE BIT DISPLACEMENT OF THE     23850020
.*                                 ITEM AS DEFINED BY THE MACRO 'DSGEN' 23940020
         GBLA  &COUNTR,&ITEMNBR,&BITS(1000),&SHIFT(1000)                24030020
         GBLC  &ITEM(1000),&DSECT                                       24120020
         LCLA  &IBITS,&NDX,&ISHIFT,&M,&BITNBR                           24210020
.LOOP    ANOP                                                           24300020
&NDX     SETA  &NDX+1                                                   24390020
         AIF   ('&ITEM(&NDX)' EQ '&LOGITEM').FOUND                      24480020
         AIF   (&NDX LT &ITEMNBR).LOOP                                  24570020
         MNOTE *,'LOGITEM NOT FOUND'                                    24660020
         MEXIT                                                          24750020
.FOUND   ANOP                                                           24840020
         DC    AL1(0)                                                   24930020
&ISHIFT  SETA  &SHIFT(&NDX)                                             25020020
&IBITS   SETA  &BITS(&NDX)                                              25110020
         AIF   ('&MASK' EQ '').FORM                                     25200020
         DC    B'&MASK'                                                 25290020
         AGO   .ITEM                                                    25380020
.FORM    ANOP                                                           25470020
&BITNBR  SETA  &ISHIFT-7                                                25560020
&BITNBR  SETA  0-&BITNBR                                                25650020
&M       SETA  1                                                        25740020
.LOOP2   ANOP                                                           25830020
         AIF   (&BITNBR EQ 0).GOTIT                                     25920020
&M       SETA  &M*2                                                     26010020
&BITNBR  SETA  &BITNBR-1                                                26100020
         AGO   .LOOP2                                                   26190020
.GOTIT   ANOP                                                           26280020
         DC    AL1(&M)                                                  26370020
.ITEM    DC    AL2(&LOGITEM-&DSECT)                                     26460020
         DC    AL2(&COUNTR)                                             26550020
&COUNTR  SETA  &COUNTR+1                                                26640020
         MEND                                                           26730020
         EJECT                                                          26820020
         MACRO                                                          26910020
         SPECIAL &ROUTINE,&PARAM,&SPACE=                                27000020
.*                            THIS MACRO GENERATES A SPECIAL ROUTINE    27090020
.*                                 ENTRY TO BE PROCESSED BY THE SUM. M. 27180020
.*                            &ROUTINE - SYMBOL ON SPECIAL ROUTINE EWT. 27270020
.*                            &PARAM - AN 8 BIT BINARY REPRESENTATION   27360020
.*                                 TO OCCUPY THE 'MASK' FIELD BUT TO BE 27450020
.*                                 INTERPRETED AS AN ARGUMENT OF THE    27540020
.*                                 SPECIAL ROUTINE.                     27630020
.*                            &SPACE - THE NUMBER OF 2BYTE COUNTERS TO  27720020
.*                                 ALLOCATE FOR REQUIRED PROCESSING.    27810020
         GBLC  &CSECT                                                   27900020
         GBLA  &COUNTR                                                  27990020
         LCLA  &ADD                                                     28080020
         DC    AL1(128)                                                 28170020
         DC    BL.8'&PARAM'                                             28260020
         DC    AL2(&ROUTINE-&CSECT)                                     28350020
         DC    AL2(&COUNTR)                                             28440020
&ADD     SETA  1                                                        28530020
         AIF   ('&SPACE' EQ '').NORM                                    28620020
&ADD     SETA  &SPACE                                                   28710020
.NORM    ANOP                                                           28800020
&COUNTR  SETA  &COUNTR+&ADD                                             28890020
         MEND                                                           28980020
         EJECT                                                          29070020
         MACRO                                                          29160020
         HEX   &LOGITEM,&SKIP$OR,&BYTES                                 29250020
.*                            THIS MACRO FACILITATES GENERATION OF THE  29340020
.*                                 TABLE ENTRIES SPECIFYING HEX TYPE    29430020
.*                                 CONVERSIONS.                         29520020
.*                            &LOGITEM - NAME OF DATA ITEM TO BE        29610020
.*                                 CONVERTED                            29700020
.*                            &SKIP$OR - NUMBER OF SPACES TO SKIP ON    29790020
.*                                 MULTIPLE PRINT OR NBR OF SPACES TO   29880020
.*                                 BACK UP FROM COLUMN FOR START OF     29970020
.*                                 PRINTING. THE LETTER B PRECEEDS THE  30060020
.*                                 NUMBER (B8) IF THE LATTER OPTION IS  30150020
.*                                 DESIRED. OMISSION OF THIS OPERAND    30240020
.*                                 FORCES OPTION 2 WITH BACKUP SPACING  30330020
.*                                 EQUAL TO THE NUMBER OF BYTES SPECI-  30420020
.*                                 FIED BY THE NEXT OPERAND (TWICE THIS 30510020
.*                                 NUMBER IF SUFFIX IS EXPLICITLY OR    30600020
.*                                 IMPLICITLY B).                       30690020
.*                            &BYTES - NUMBER OF TOTAL INPUT BYTES TO   30780020
.*                                 PROCESS. THIS NUMBER IS SUFFIXED     30870020
.*                                 WITH AN L,R, OR B TO STIPULATE       30960020
.*                                 PRINTING OF THE LEFT HALF, RIGHT     31050020
.*                                 HALF, OR BOTH HALVES OF THE BYTE     31140020
.*                                 RESPECTIVELY. OMISSION OF THIS       31230020
.*                                 OPERAND DEFAULTS TO B WITH THE NUM-  31320020
.*                                 BER OF BYTES EQUAL TO THE ITEM LNGTH 31410020
.*                            A NEW ENTRY IS GENERATED ONLY WHEN NECES- 31500020
.*                                 SARY. THIS MACRO MUST BE THE FIRST   31590020
.*                                 MACRO INSTRUCTION ISSUED FOR THE     31680020
.*                                 SUBJECT LINE(S).                     31770020
         GBLC &ITEM(1000),&DSECT                                        31860020
         GBLA &ITEMNBR,&BITS(1000),&SHIFT(1000),&NRENTS                 31950020
         LCLB  &B                                                       32040020
         LCLA  &IBITS,&NDX,&ISHIFT,&K,&T,&CODE,&BYTESP                  32130020
         LCLC  &S,&LETTER                                               32220020
.LOOP    ANOP                                                           32310020
&NDX     SETA  &NDX+1                                                   32400020
         AIF   ('&ITEM(&NDX)' EQ '&LOGITEM').FOUND                      32490020
         AIF   (&NDX LT &ITEMNBR).LOOP                                  32580020
         MNOTE *,'LOG ITEM NOT DEFINED'                                 32670020
         MEXIT                                                          32760020
.FOUND   ANOP                                                           32850020
&ISHIFT  SETA  &SHIFT(&NDX)                                             32940020
&IBITS   SETA  &BITS(&NDX)                                              33030020
&CODE    SETA  1                                                        33120020
&K       SETA  K'&BYTES                                                 33210020
         AIF   (&IBITS-(&IBITS/4)*4 EQ 0).OK                            33300020