         TITLE 'IFCSXXXA / SUM TABLE - LINKNAME=IFCS2400,ALIASES=IFCS32C00065042
               11,IFCS3540'                                             00095042
         SPACE 2                                                        00130042
*  LINE MACRO     LINE MACRO     LINE MACRO     LINE MACRO            * 00195042
         MACRO                                                          00260042
&NAME    LINE  &DATA,&LABEL,&SKIP=                                      00325042
.*                            THIS MACRO ESTABLISHES THE MARGINS OR     00390042
.*                                 COLUMN SETTINGS FOR EACH LINE. IT    00455042
.*                                 GENERATES NECESSARY CARRIAGE CONTROL 00520042
.*                                 ENTRIES. LASTLY IT DETERMINES THE    00585042
.*                                 NUMBER OF ENTRIES ASSOCIATED WITH    00650042
.*                                 THE PREVIOUS LINE AND STORES THAT #  00715042
.*                                 INTO THE APPROPRIATE BYTE.           00780042
.*                                 &DATA(1) - CHARACTER POSITION TO     00845042
.*                                 BEGIN DATA.                          00910042
.*                                                                      00975042
.*                                 &DATA(2) - # OF SPACES BETWEEN       01040042
.*                                 SUCCESSIVE DATA COLUMN STARTING      01105042
.*                                 CHARACTERS.                          01170042
.*                                                                      01235042
.*                                 &LABEL(1) - CHARACTER POSITION       01300042
.*                                 TO BEGIN LABELS.                     01365042
.*                                                                      01430042
.*                                 &LABEL(2) - # OF SPACES BETWEEN      01495042
.*                                 LINE'S LABEL STARTING CHARACTERS.    01560042
.*                                                                      01625042
.*                                 &SKIP= - # OF LINES TO ADVANCE       01690042
.*                                 CARRIAGE TO BEGIN NEXT PRINTED LINE. 01755042
.*                                                                      01820042
.*                                 NEW ENTRIES ARE GENERATED ONLY WHEN  01885042
.*                                 NECESSARY. OMISSION OF ITEMS MEANS   01950042
.*                                 THEY HAVE NOT CHANGED SINCE PREVIOUS 02015042
.*                                 SETTINGS. A LINE MACRO IS REQUIRED   02080042
.*                                 FOR EACH PRINTED LINE. IF NO SETTING 02145042
.*                                 CHANGES ARE REQUIRED ALL OPERANDS    02210042
.*                                 ARE OMITTED IN WHICH CASE ONLY THE   02275042
.*                                 # OF ENTRIES FOR THE PREVIOUS LINE   02340042
.*                                 FIRST MACRO INSTRUCTION ISSUED FOR   02405042
.*                                 THE SUBJECT LINE.                    02470042
         GBLA  &DB,&DT,&LB,&LT,&NRENTS                                  02535042
         GBLA  &LASTCC,&INITIAL                                         02600042
         GBLC  &NRENTSX                                                 02665042
         GBLC  &CARRCON                                                 02730042
         GBLB  &TEST                                                    02795042
         LCLA  &S                                                       02860042
&NAME    DS    0C                                                       02925042
         AIF   (&INITIAL EQ 0).FIRSTLN                                  02990042
         LINEND                                                         03055042
         AGO   .NTFIRST                                                 03120042
.FIRSTLN ANOP                                                           03185042
&NRENTSX SETC  'N&SYSNDX'                                               03250042
&INITIAL SETA  1                                                        03315042
&LASTCC  SETA  1                                                        03380042
N&SYSNDX EQU   *                                                        03445042
.NTFIRST ANOP                                                           03510042
         DC    AL1(0)                                                   03575042
         AIF   ('&DATA(1)' EQ '').CKDTABS                               03640042
         AIF   ('&DATA'(1,1) NE '(').SLABEL                             03705042
         AIF   (&DATA(1) EQ &DB).CKDTABS                                03770042
&DB      SETA  &DATA(1)                                                 03835042
         AGO   .AA                                                      03900042
.CKDTABS AIF   ('&DATA(2)' EQ '').NCDATA                                03965042
         AIF   (&DATA(2) EQ &DT).NCDATA                                 04030042
         AGO   .CC                                                      04095042
.AA      AIF   ('&DATA(2)' EQ '').BB                                    04160042
         AIF   (&DATA(2) EQ &DT).BB                                     04225042
.CC      ANOP                                                           04290042
&DT      SETA  &DATA(2)                                                 04355042
.BB      DC    XL2'FFFE'                                                04420042
         DC    FL1'&DB'                                                 04485042
         DC    FL1'&DT'                                                 04550042
&NRENTS  SETA  &NRENTS+1                                                04615042
.NCDATA  ANOP                                                           04680042
         AIF   ('&LABEL(1)' EQ '').CKLTABS                              04745042
         AIF   ('&LABEL'(1,1) NE '(').SLABEL                            04810042
         AIF   (&LABEL(1) EQ &LB).CKLTABS                               04875042
&LB      SETA  &LABEL(1)                                                04940042
         AGO   .AAA                                                     05005042
.CKLTABS AIF   ('&LABEL(2)' EQ '').NCLABEL                              05070042
         AIF   (&LABEL(2) EQ &LT).NCLABEL                               05135042
         AGO   .CCC                                                     05200042
.AAA     AIF   ('&LABEL(2)' EQ '').BBB                                  05265042
         AIF   (&LABEL(2) EQ &LT).BBB                                   05330042
.CCC     ANOP                                                           05395042
&LT      SETA  &LABEL(2)                                                05460042
.BBB     DC    XL2'FFFF'                                                05525042
         DC    FL1'&LB'                                                 05590042
         DC    FL1'&LT'                                                 05655042
&NRENTS  SETA  &NRENTS+1                                                05720042
.NCLABEL ANOP                                                           05785042
         AIF   ('&SKIP' EQ 'E').EJECT                                   05850042
         AIF   ('&SKIP' EQ '').TESTOFF                                  05915042
.CONT    ANOP                                                           05980042
         AIF   (&TEST EQ 0).AB                                          06045042
         AIF   (&SKIP EQ &LASTCC).TESTOFF                               06110042
&S       SETA  &SKIP                                                    06175042
         ORG   &CARRCON+3                                               06240042
         DC    AL.3(0),AL.2(&S),AL.3(1)                                 06305042
         ORG                                                            06370042
&LASTCC  SETA  &S                                                       06435042
.SLABEL  ANOP                                                           06500042
.TESTOFF ANOP                                                           06565042
&TEST    SETB  0                                                        06630042
         AGO   .DD                                                      06695042
.EJECT   DC    XL2'FFFB'                                                06760042
&NRENTS  SETA  &NRENTS+1                                                06825042
         DC    X'8B'              SKIP TO CHANNEL 1                     06890042
         DC    AL.3(0),AL.2(&LASTCC),AL.3(1)                            06955042
&TEST    SETB  1                                                        07020042
         AGO   .DD                                                      07085042
.AB      AIF   (&SKIP EQ &LASTCC).NOCHANG                               07150042
A&SYSNDX DC    XL2'FFFB'                                                07215042
         DC    AL.3(0),AL.2(&SKIP),AL.3(1)                              07280042
         DC    AL.3(0),AL.2(&SKIP),AL.3(1)                              07345042
&LASTCC  SETA  &SKIP                                                    07410042
&TEST    SETB  1                                                        07475042
&CARRCON SETC  'A&SYSNDX'                                               07540042
&NRENTS  SETA  &NRENTS+1                                                07605042
.DD      ANOP                                                           07670042
.NOCHANG ANOP                                                           07735042
         MEND                                                           07800042
         EJECT                                                          07865042
         SPACE 2                                                        07930042
*  ROUTINE MACRO     ROUTINE MACRO     ROUTINE MACRO     ROUTINE MACRO* 07995042
         MACRO                                                          08060042
&NAME    ROUTINE &LOGITEM,&RNAME                                        08125042
         GBLC  &DSECT,&CSECT                                            08190042
         GBLC  &ITEM(1000)                                              08255042
         GBLA  &SHIFT(1000),&ITEMNBR                                    08320042
         GBLA  &NRENTS                                                  08385042
         LCLA  &ISHIFT,&NDX                                             08450042
.LOOP    ANOP                                                           08515042
&NDX     SETA  &NDX+1                                                   08580042
         AIF   ('&ITEM(&NDX)' EQ '&LOGITEM').FOUND                      08645042
         AIF   (&NDX LT &ITEMNBR).LOOP                                  08710042
         MNOTE *,'LOG ITEM NOT DEFINED'                                 08775042
         MEXIT                                                          08840042
.FOUND   ANOP                                                           08905042
&ISHIFT  SETA  &SHIFT(&NDX)                                             08970042
&NAME    DC    AL.12(&LOGITEM-&DSECT),XL.4'D'                           09035042
         DC    AL.4(&ISHIFT),AL.12(&RNAME-&CSECT)                       09100042
&NRENTS  SETA  &NRENTS+1                                                09165042
         MEND                                                           09230042
*  DSGEN MACRO     DSGEN MACRO     DSGEN MACRO     DSGEN MACRO        * 09295042
         SPACE 2                                                        09360042
         MACRO                                                          09425042
&NAME    DSGEN &X1,&X2,&X3,&X4,&X5,&X6,&X7,&X8,&X9,&X10,&X11,&X12,&X13,X09490042
               &X14,&X15,&X16,&X17,&X18,&X19,&X20,&X21,&X22,&X23,&X24, X09555042
               &X25,&X26,&X27,&X28,&X29,&X30,&X31,&X32                  09620042
.*                            THIS MACRO GENERATES ONE DSECT WORD       09685042
.*                                 FORMATTED FOR THE SUBJECT LOG RECORD 09750042
.*                                 EACH OPERAND HAS TWO SUB LISTS. THE  09815042
.*                                 FIRST IS THE NAME OF THE LOG ITEM    09880042
.*                                 WHILE THE SECOND IS THE # OF BITS TO 09945042
.*                                 ALLOCATE FOR THIS ITEM. ITEMS MUST   10010042
.*                                 BE DEFINED CONTIGUOUSLY WITHOUT GAPS 10075042
.*                                 UNUSED BIT GROUPS MUST BE GIVEN      10140042
.*                                 DUMMY NAMES. THE NAMES PROVIDED FOR  10205042
.*                                 THE LOG ITEMS MAY THEN BE USED IN    10270042
.*                                 THE CONVERSION MACRO INSTRUCTIONS.   10335042
         GBLC &ITEM(1000)                                               10400042
         GBLA &ITEMNBR,&BITS(1000),&SHIFT(1000)                         10465042
         LCLC  &SYMBOL                                                  10530042
         LCLA  &OP,&COUNT,&BYTE                                         10595042
.LOOP    ANOP                                                           10660042
&OP      SETA  &OP+1                                                    10725042
&ITEMNBR SETA  &ITEMNBR+1                                               10790042
&SYMBOL  SETC  '&SYSLIST(&OP,1)'                                        10855042
         AIF   ('&SYSLIST(&OP,2)' NE '').OK1                            10920042
         MNOTE *,'NULL BIT COUNT FIELD'                                 10985042
         MEXIT                                                          11050042
.OK1     ANOP                                                           11115042
         AIF   ('&SYMBOL' NE '').OK                                     11180042
         MNOTE 'LOG ITEM SYMBOL NOT PROVIDED'                           11245042
         AGO   .CNT                                                     11310042
.OK      ANOP                                                           11375042
         AIF   ('&SYMBOL'(1,1) EQ '''').CNT                *TEMP*       11440042
&SYMBOL  EQU   *+&BYTE                                                  11505042
&ITEM(&ITEMNBR)  SETC '&SYSLIST(&OP,1)'                                 11570042
&BITS(&ITEMNBR) SETA &SYSLIST(&OP,2)                                    11635042
&SHIFT(&ITEMNBR) SETA &COUNT-&BYTE*8                                    11700042
.CNT     ANOP                                                           11765042
&COUNT   SETA  &COUNT+&SYSLIST(&OP,2)                                   11830042
&BYTE    SETA  &COUNT/8                                                 11895042
         AIF (&OP LT N'&SYSLIST).LOOP                                   11960042
         AIF   (&COUNT NE 32).NOT32                                     12025042
&NAME    DS    4C                                                       12090042
         MEXIT                                                          12155042
.NOT32   AIF   (&COUNT NE 64).ERR                                       12220042
&NAME    DS    8C                                                       12285042
         MEXIT                                                          12350042
.ERR     MNOTE '**BIT COUNT FIELDS DO NOT TOTAL 32 OR 64**'             12415042
         MEND                                                           12480042
         MACRO                                                          12545042
         LINEND                                                         12610042
.*                            THIS MACRO IS USED ONLY BY THE LINE       12675042
.*                                 MACRO TO SET THE NUMBER OF ENTRIES   12740042
.*                                 ASSOCIATED WITH EACH LINE.           12805042
         GBLA  &NRENTS                                                  12870042
         GBLC &NRENTSX                                                  12935042
         ORG   &NRENTSX                                                 13000042
         DC    FL1'&NRENTS'                                             13065042
         ORG                                                            13130042
&NRENTS  SETA  0                                                        13195042
B&SYSNDX EQU   *                                                        13260042
&NRENTSX SETC  'B&SYSNDX'                                               13325042
         MEND                                                           13390042
         SPACE 2                                                        13455042
         EJECT                                                          13520042
*  LABEL MACRO     LABEL MACRO     LABEL MACRO     LABEL MACRO        * 13585042
         SPACE 2                                                        13650042
         MACRO                                                          13715042
&NAME    LABEL &LABEL1,&LABEL2,&LABEL3,&LABEL4,&LABEL5,&LABEL6,        C13780042
               &LABEL7,&LABEL8                                          13845042
.*                            THIS MACRO ALLOWS UP TO ACHT LABELS TO    13910042
.*                                 BE SPECIFIED FOR A GIVEN LINE. THE   13975042
.*                                 LABELS SHOULD BE ENCLOSED IN QUOTA-  14040042
.*                                 TION MARKS. THE COLUMN AND LINE END  14105042
.*                                 CONTROLS WILL BE INSERTED BY THE     14170042
.*                                 MACRO. OMITTED OPERANDS MEAN NO      14235042
.*                                 LABEL REQUIRED FOR RESPECTIVE        14300042
.*                                 COLUMN. THIS MACRO WILL ALSO ALERT   14365042
.*                                 THE PROGRAMMER TO EXACTLY WHERE THE  14430042
.*                                 TABLE MUST BE BROKEN IF NECESSARY    14495042
.*                                 TO AVOID EXCEEDING THE MAXIMUM LIMIT 14560042
         GBLC &LABELS(2000)                                             14625042
         GBLC  &LBL(100)                                                14690042
         GBLA  &LBLCTR(100)                                             14755042
         GBLA  &LABELNR                                                 14820042
         GBLA  &NRENTS,&LPTR                                            14885042
         LCLC  &MARGIN,&TACK                                            14950042
         LCLC  &TEXT                                                    15015042
         LCLA  &OP,&K,&START,&NRCHAR,&REMAIN                            15080042
&MARGIN  SETC  '*'                                                      15145042
         AIF   ('&NAME' EQ '').LOOPOUT                                  15210042
&LPTR    SETA  &LPTR+1                                                  15275042
&LBL(&LPTR) SETC '&NAME'                                                15340042
&LBLCTR(&LPTR) SETA &LABELNR+1                                          15405042
.LOOPOUT ANOP                                                           15470042
&OP      SETA  &OP+1                                                    15535042
&K       SETA  K'&SYSLIST(&OP)                                          15600042
         AIF (&K GE 2).NORM                                             15665042
&K       SETA  2                                                        15730042
.NORM    ANOP                                                           15795042
&START   SETA  2                                                        15860042
         AIF (&OP LT N'&SYSLIST).NOTLAST                                15925042
&MARGIN  SETC  '$'                                                      15990042
.NOTLAST ANOP                                                           16055042
&NRCHAR  SETA  8                                                        16120042
&TACK    SETC  ''                                                       16185042
.LOOPIN  ANOP                                                           16250042
&REMAIN  SETA  &K-&START                                                16315042
         AIF (&REMAIN GE 8).MORE                                        16380042
&TACK    SETC  '&MARGIN'                                                16445042
&NRCHAR  SETA  &REMAIN                                                  16510042
.MORE    ANOP                                                           16575042
&TEXT    SETC  ''                                                       16640042
         AIF (&REMAIN EQ 0).ENDTEXT                                     16705042
&TEXT    SETC  '&SYSLIST(&OP)'(&START,&NRCHAR)                          16770042
.ENDTEXT ANOP                                                           16835042
&LABELNR SETA  &LABELNR+1                                               16900042
&LABELS(&LABELNR) SETC '&TEXT'.'&TACK'                                  16965042
&START   SETA  &START+8                                                 17030042
         AIF ('&TACK' EQ '').LOOPIN                                     17095042
         AIF ('&TACK' EQ '*').LOOPOUT                                   17160042
         MEND                                                           17225042
         SPACE 2                                                        17290042
         MACRO                                                          17355042
         LSTART                                                         17420042
.*                            THIS MACRO IS ISSUED WHEN THE LABEL AREA  17485042
.*                                 OF THE TABLE IS TO BEGIN.            17550042
         GBLC &LABELS(2000)                                             17615042
         GBLA  &LABELNR                                                 17680042
         GBLC  &LBL(100)                                                17745042
         GBLA  &LBLCTR(100)                                             17810042
         LCLA  &NDX,&CTR                                                17875042
         LINEND                                                         17940042
&CTR     SETA  1                                                        18005042
.LOOP    ANOP                                                           18070042
&NDX     SETA  &NDX+1                                                   18135042
         AIF   (&LBLCTR(&CTR) NE &NDX).NOLBL                            18200042
&LBL(&CTR) DC  C'&LABELS(&NDX)'                                         18265042
&CTR     SETA  &CTR+1                                                   18330042
         AGO   .LOOPCTL                                                 18395042
.NOLBL   ANOP                                                           18460042
         DC    C'&LABELS(&NDX)'                                         18525042
.LOOPCTL AIF   (&NDX LT &LABELNR).LOOP                                  18590042
         MEND                                                           18655042
         SPACE 2                                                        18720042
*  BIN MACRO     BIN MACRO     BIN MACRO     BIN MACRO     BIN MACRO  * 18785042
         SPACE 2                                                        18850042
         MACRO                                                          18915042
         BIN   &LOGITEM,&SKIP$OR                                        18980042
.*                                 &LOGITEM - NAME OF ITEM IN LOG       19045042
.*                                      RECORD DSECT                    19110042
.*                                 &SKIP$OR - NBR OF SPACES TO SKIP ON  19175042
.*                                 MULTIPLE PRINT OR NBR OF SPACES      19240042
.*                                      TO BACK UP FROM COLUMN FOR      19305042
.*                                      START OF PRINTING. THE LETTER   19370042
.*                                      B PRECEEDS THE NUMBER (B5) IF   19435042
.*                                      THE LATTER IS DESIRED. OMISSION 19500042
.*                                      OF THIS OPERAND FORCES OPTION 2 19565042
.*                                      WITH BACKUP SPACING EQUAL TO    19630042
.*                                 THE NUMBER OF BITS IN THE ITEM       19695042
.*                                 DEFINITION (VIA MACRO 'DSGEN').      19760042
.*                            A LIMIT OF 15 BITS IS IMPOSED FOR THE     19825042
.*                                 TOTAL NUMBER OF BITS TO PRINT.       19890042
         GBLC &ITEM(1000)                                               19955042
         GBLA &ITEMNBR,&BITS(1000),&SHIFT(1000),&NRENTS                 20020042
         GBLC  &DSECT                                                   20085042
         LCLB  &B                                                       20150042
         LCLA  &IBITS,&NDX,&ISHIFT,&K                                   20215042
         LCLA  &TEMP,&T                                                 20280042
         LCLC  &S                                                       20345042
.LOOP    ANOP                                                           20410042
&NDX     SETA  &NDX+1                                                   20475042
         AIF   ('&ITEM(&NDX)' EQ '&LOGITEM').FOUND                      20540042
         AIF   (&NDX LT &ITEMNBR).LOOP                                  20605042
         MNOTE *,'YOU BLEW IT'                                          20670042
         ROUTINE DUM,SKIPPER                                            20735042
         MEXIT                                                          20800042
.FOUND   ANOP                                                           20865042
&ISHIFT  SETA  &SHIFT(&NDX)                                             20930042
&IBITS   SETA  &BITS(&NDX)                                              20995042
&T       SETA  &IBITS-1                                                 21060042
&B       SETB  0                                                        21125042
         AIF   ('&SKIP$OR' EQ '').BACKUP                                21190042
&K       SETA  K'&SKIP$OR                                               21255042
&B       SETB  ('&SKIP$OR'(1,1) EQ 'B')                                 21320042
&S       SETC  '&SKIP$OR'(&B+1,&K-&B)                                   21385042
&T       SETA  &S                                                       21450042
.BACKUP  ANOP                                                           21515042
&NRENTS  SETA  &NRENTS+1                                                21580042
&TEMP    SETA  &ISHIFT                                                  21645042
A&SYSNDX DC    AL.12(&LOGITEM-&DSECT),XL.4'&TEMP'                       21710042
         AIF (&IBITS EQ 1 AND &B EQ 0).OUT                              21775042
         ORG   A&SYSNDX                                                 21840042
&B       SETB  1                                                        21905042
         DC    AL.12(&LOGITEM-&DSECT),XL.4'C'                           21970042
         DC    BL.1'&B',AL.7(&T),AL.4(&IBITS),FL.4'&ISHIFT'             22035042
.OUT     ANOP                                                           22100042
         MEND                                                           22165042
         EJECT                                                          22230042
*  HEX MACRO     HEX MACRO     HEX MACRO    HEXN MACRO     HEX MACRO  * 22295042
         SPACE 2                                                        22360042
         MACRO                                                          22425042
         HEX   &LOGITEM,&SKIP$OR,&BYTES                                 22490042
.*                            THIS MACRO FACILITATES GENERATION OF THE  22555042
.*                                 TABLE ENTRIES SPECIFYING HEX TYPE    22620042
.*                                 CONVERSIONS.                         22685042
.*                            &LOGITEM - NAME OF DATA ITEM TO BE        22750042
.*                                 CONVERTED                            22815042
.*                            &SKIP$OR - NUMBER OF SPACES TO SKIP ON    22880042
.*                                 MULTIPLE PRINT OR NBR OF SPACES TO   22945042
.*                                 BACK UP FROM COLUMN FOR START OF     23010042
.*                                 PRINTING. THE LETTER B PRECEEDS THE  23075042
.*                                 NUMBER (B8) IF THE LATTER OPTION IS  23140042
.*                                 DESIRED. OMISSION OF THIS OPERAND    23205042
.*                                 FORCES OPTION 2 WITH BACKUP SPACING  23270042
.*                                 EQUAL TO THE NUMBER OF BYTES SPECI-  23335042
.*                                 FIED BY THE NEXT OPERAND (TWICE THIS 23400042
.*                                 NUMBER IF SUFFIX IS EXPLICITLY OR    23465042
.*                                 IMPLICITLY B).                       23530042
.*                            &BYTES - NUMBER OF TOTAL INPUT BYTES TO   23595042
.*                                 PROCESS. THIS NUMBER IS SUFFIXED     23660042
.*                                 WITH AN L,R, OR B TO STIPULATE       23725042
.*                                 PRINTING OF THE LEFT HALF, RIGHT     23790042
.*                                 HALF, OR BOTH HALVES OF THE BYTE     23855042
.*                                 RESPECTIVELY. OMISSION OF THIS       23920042
.*                                 OPERAND DEFAULTS TO B WITH THE NUM-  23985042