 TITLE 'IFCSAXXX - VTAM RECORD SUMMARY'                                 00060042
*          THIS MODULE IN SUPPORT OF                            XL03004 00120042
         MACRO                                                          00180042
&NAME    DSGEN ,                                                        00240042
.*                            THIS MACRO GENERATES ONE DSECT WORD       00300042
.*                                 FORMATTED FOR THE SUBJECT LOG RECORD 00360042
.*                                 EACH OPERAND HAS TWO SUB LISTS. THE  00420042
.*                                 FIRST IS THE NAME OF THE LOG ITEM    00480042
.*                                 WHILE THE SECOND IS THE # OF BITS TO 00540042
.*                                 ALLOCATE FOR THIS ITEM. ITEMS MUST   00600042
.*                                 BE DEFINED CONTIGUOUSLY WITHOUT GAPS 00660042
.*                                 UNUSED BIT GROUPS MUST BE GIVEN      00720042
.*                                 DUMMY NAMES. THE NAMES PROVIDED FOR  00780042
.*                                 THE LOG ITEMS MAY THEN BE USED IN    00840042
.*                                 THE CONVERSION MACRO INSTRUCTIONS.   00900042
         GBLA  &BITS(2600),&DB,&DT,&INITIAL                             00960042
         GBLA  &ITEMITR,&ITEMFST(20),&ITEMNBR,&ITEMMDX                  01020042
         GBLA  &ITEMNDX(2600),&ITEMXPT                                  01080042
         GBLA  &LABELNR,&LASTCC,&LB,&LBLCTR(100),&LPTR,&LT              01140042
         GBLA  &NRENTS,&SHIFT(2600)                                     01200042
         GBLB  &DIAGITF,&DIAGLIN,&DIAGSET,&DIAGTST,&FSW,&TEST           01260042
         GBLC  &CARRCON,&CSECT,&DSECT,&ITEM(2600)                       01320042
         GBLC  &LABELS(2600),&LBL(100),&NRENTSX                         01380042
         LCLB  &ONLY1,&CTIND                                            01440042
         LCLA  &START1,&START2,&END1,&END2                              01500042
         LCLC  &SYMBOL,&EQUSYM                                          01560042
         LCLA  &OP,&COUNT,&BYTE,&EQUCNT                                 01620042
         ACTR  100000                                                   01680042
         AIF   (&ITEMITR EQ 0).START                                    01740042
 MNOTE   20,'DSGEN MACRO OCCURRS AFTER ITEMSORT MACRO HAS BEEN ISSUED.' 01800042
         MEXIT                                                          01860042
.START   AIF   (N'&SYSLIST(&OP+1) LT 3).LOOP                            01920042
         AIF   ('&SYSLIST(&OP+1,3)' EQ 'EQU').LOOP     TEST FOR EQU     01980042
  AIF   ('&SYSLIST(&OP+1,3)' EQ '' OR '&SYSLIST(&OP+1,4)' EQ '').ERR1   02040042
         AIF   ('&SYSLIST(&OP+1,3)' GT '&SYSLIST(&OP+1,4)').ERR3        02100042
&START1  SETA  &SYSLIST(&OP+1,3)        GET START COUNT OF 1            02160042
&START2  SETA  &SYSLIST(&OP+1,4)        GET FIRST END COUNT             02220042
         AGO   .SET2A                   BRANCH AROUND                   02280042
         AIF   ('&SYSLIST(&OP+1,5)' GT '&SYSLIST(&OP+1,6)').ERR3        02340042
.ERR1    MNOTE '**FIRST SYMBOL CONCATENATION INCOMPLETE**'              02400042
         MEXIT                                                          02460042
.SET2A   AIF   ('&SYSLIST(&OP+1,5)' EQ ''AND '&SYSLIST(&OP+1,6)' EQ '' X02520042
               ).SET2                   TEST FOR NO SECOND              02580042
  AIF   ('&SYSLIST(&OP+1,5)' EQ '' OR '&SYSLIST(&OP+1,6)' EQ '').ERR2   02640042
&END1    SETA  &SYSLIST(&OP+1,5)        GET START COUNT OF 2            02700042
&END2    SETA  &SYSLIST(&OP+1,6)        GET END COUNT OF 2              02760042
         AGO   .LOOP                                                    02820042
.SET2    ANOP                                                           02880042
&ONLY1   SETB  1                        INDICATE ONLY ONE CONCATENATION 02940042
         AGO   .LOOP                                                    03000042
.ERR2    MNOTE '**SECOND SYMBOL CONCATENATION INCOMPLETE**'             03060042
         MEXIT                                                          03120042
.ERR3    MNOTE '**START GREATER THAN END CONCATENATION**'               03180042
         MEXIT                                                          03240042
.LOOP    ANOP                                                           03300042
&OP      SETA  &OP+1                                                    03360042
         AIF   (&OP GT N'&SYSLIST).DONE      TEST IF ALL DONE           03420042
&ITEMNBR SETA  &ITEMNBR+1                                               03480042
         AIF   ('&SYSLIST(&OP,2)' NE '').OK1                            03540042
         MNOTE '**NULL BIT COUNT FIELD**'                               03600042
         MEXIT                                                          03660042
.OK1     ANOP                                                           03720042
&SYMBOL  SETC  '&SYSLIST(&OP,1)'                                        03780042
         AIF   ('&SYMBOL' NE '').OK                                     03840042
*              *****     LOG ITEM SYMBOL NOT PROVIDED     *****         03900042
         AIF   ('&SYSLIST(&OP,3)' NE 'EQU').CNT                         03960042
         AGO   .START                   GET NEXT                        04020042
.OK      AIF   (N'&SYSLIST(&OP) LT 3).NO3    TEST FOR OLD FORMAT        04080042
         AIF   ('&SYSLIST(&OP,3)' EQ 'EQU').EQU   TEST FOR EQU          04140042
         AIF   (&ONLY1).OK2             TEST FOR ONLY ONE CONCAT        04200042
&SYMBOL  SETC  '&SYMBOL.&START1.&END1'       GET 1 AND 2 CONCAT         04260042
         AGO   .NO3                     BRANCH AROUND                   04320042
.OK2     ANOP                                                           04380042
&SYMBOL  SETC  '&SYMBOL.&START1'        GET 1 CONCATENATED              04440042
.NO3     ANOP                                                           04500042
&SYMBOL  EQU   *+&BYTE                                                  04560042
&ITEM(&ITEMNBR) SETC '&SYMBOL'          GET LABEL IN GLOBAL             04620042
&BITS(&ITEMNBR) SETA &SYSLIST(&OP,2)                                    04680042
&SHIFT(&ITEMNBR) SETA &COUNT-&BYTE*8                                    04740042
.CNT     ANOP                                                           04800042
&CTIND   SETB  1                        SET COUNT INDICATOR             04860042
&COUNT   SETA  &COUNT+&SYSLIST(&OP,2)                                   04920042
&BYTE    SETA  &COUNT/8                                                 04980042
         AIF   (N'&SYSLIST(&OP) LT 3).START  TEST FOR OLD FORMAT        05040042
         AIF   (&ONLY1).TSTST           TEST FOR ONLY ONE CONCAT        05100042
         AIF   (&END1 EQ &END2).TSTST   TEST FOR SECOND END             05160042
&END1    SETA  &END1+1                  INCREMENT COUNT                 05220042
&OP      SETA  &OP-1                    DECREMENT INCREMENT             05280042
         AGO   .LOOP                    GENERATE NEXT                   05340042
.TSTST   ANOP                                                           05400042
         AIF   (&START1 EQ &START2).LPDONE   TEST FOR END               05460042
         AIF   (&ONLY1).NSET1           TEST FOR ONLY ONE CONCAT        05520042
&END1    SETA  &SYSLIST(&OP,5)          RE-INIT SECOND START COUNT      05580042
.NSET1   ANOP                                                           05640042
&OP      SETA  &OP-1                    DECREMENT INDEX                 05700042
&START1  SETA  &START1+1                INCREMENT FIRST COUNT           05760042
         AGO   .LOOP                    GO DO NEXT                      05820042
.LPDONE  ANOP                                                           05880042
&ONLY1   SETB  0                        CLEAR INDICATOR                 05940042
         AGO   .START                   GO TEST FOR MORE SUB-LISTS      06000042
.DONE    AIF   (&COUNT-&COUNT/8*8 NE 0).ERR  TEST FOR MULTIPLE OF EIGHT 06060042
         AIF   (&CTIND EQ 0).END        NO DS IF NO COUNT               06120042
&COUNT   SETA  &COUNT/8                 GET NUMBER OF BYTES             06180042
&NAME    DS    &COUNT.C                                                 06240042
.END     MEXIT                                                          06300042
.ERR     MNOTE '**BIT COUNT FLDS DO NOT TOTAL MULTIPLE OF 8**'          06360042
         MEXIT                                                          06420042
.EQU     AIF   ('&SYSLIST(&OP,4)' NE '').EQU1     TEST FOR NULL LABEL   06480042
.ERR4    MNOTE '**EQU OPERAND OMITTED OR NOT FOUND**'                   06540042
         MEXIT                                                          06600042
.EQU1    AIF   (&SYSLIST(&OP,2) LT 16).EQU2  COUNT OVER FIFTEEN         06660042
*****               THE FOLLOWING STATEMENT                *****        06720042
*****     NUMBER OF BITS EXCEED 15 - DO NOT USE AS BIN     *****        06780042
.EQU2    ANOP                                                           06840042
&EQUCNT  SETA  0                        CLEAR COUNTER                   06900042
&EQUSYM  SETC  '&SYSLIST(&OP,4)'        GET EQU OPERAND                 06960042
.EQULOP  ANOP                                                           07020042
&EQUCNT  SETA  &EQUCNT+1                INCREMENT INDEX                 07080042
         AIF   ('&ITEM(&EQUCNT)' EQ '&EQUSYM').EQUOUT  LABEL FOUND?     07140042
         AIF   (&EQUCNT EQ &ITEMNBR).ERR4    ALL TESTED?                07200042
         AGO   .EQULOP                  NO-GET NEXT                     07260042
.EQUOUT  ANOP                                                           07320042
&ITEM(&ITEMNBR) SETC '&SYMBOL'          GET LABEL NAME                  07380042
&BITS(&ITEMNBR) SETA &SYSLIST(&OP,2)    GET NUMBER OF BITS              07440042
&SHIFT(&ITEMNBR) SETA &SHIFT(&EQUCNT)   GET SHIFT COUNT                 07500042
&SYMBOL  EQU   &EQUSYM                  THIS SYMBOL EQUATED             07560042
         AGO   .START                   RETURN FOR NEXT                 07620042
         MEND                                                           07680042
         MACRO                                                          07740042
         HEX   ,                                                        07800042
.*                            THIS MACRO FACILITATES GENERATION OF THE  07860042
.*                                 TABLE ENTRIES SPECIFYING HEX TYPE    07920042
.*                                 CONVERSIONS.                         07980042
.*                            &SYSLIST(&OP,1) - NAME OF DATA ITEM TO BE 08040042
.*                                 CONVERTED                            08100042
.*                            &SYSLIST(&OP,2) - # OF SPACES TO SKIP ON  08160042
.*                                 MULTIPLE PRINT OR NBR OF SPACES TO   08220042
.*                                 BACK UP FROM COLUMN FOR START OF     08280042
.*                                 PRINTING. THE LETTER B PRECEEDS THE  08340042
.*                                 NUMBER (B8) IF THE LATTER OPTION IS  08400042
.*                                 DESIRED. OMISSION OF THIS OPERAND    08460042
.*                                 FORCES OPTION 2 WITH BACKUP SPACING  08520042
.*                                 EQUAL TO THE NUMBER OF BYTES SPECI-  08580042
.*                                 FIED BY THE NEXT OPERAND (TWICE THIS 08640042
.*                                 NUMBER IF SUFFIX IS EXPLICITLY OR    08700042
.*                                 IMPLICITLY B).                       08760042
.*                            &SYSLIST(&OP,3) - NUMBER OF BYTES TO      08820042
.*                                 PROCESS. THIS NUMBER IS SUFFIXED     08880042
.*                                 WITH AN L,R, OR B TO STIPULATE       08940042
.*                                 PRINTING OF THE LEFT HALF, RIGHT     09000042
.*                                 HALF, OR BOTH HALVES OF THE BYTE     09060042
.*                                 RESPECTIVELY. OMISSION OF THIS       09120042
.*                                 OPERAND DEFAULTS TO B WITH THE NUM-  09180042
.*                                 BER OF BYTES EQUAL TO THE ITEM LNGTH 09240042
.*                            A NEW ENTRY IS GENERATED ONLY WHEN NECES- 09300042
.*                                 SARY. THIS MACRO MUST BE THE FIRST   09360042
.*                                 MACRO INSTRUCTION ISSUED FOR THE     09420042
.*                                 SUBJECT LINE(S).                     09480042
         GBLA  &BITS(2600),&DB,&DT,&INITIAL                             09540042
         GBLA  &ITEMITR,&ITEMFST(20),&ITEMNBR,&ITEMMDX                  09600042
         GBLA  &ITEMNDX(2600),&ITEMXPT                                  09660042
         GBLA  &LABELNR,&LASTCC,&LB,&LBLCTR(100),&LPTR,&LT              09720042
         GBLA  &NRENTS,&SHIFT(2600)                                     09780042
         GBLB  &DIAGITF,&DIAGLIN,&DIAGSET,&DIAGTST,&FSW,&TEST           09840042
         GBLC  &CARRCON,&CSECT,&DSECT,&ITEM(2600)                       09900042
         GBLC  &LABELS(2600),&LBL(100),&NRENTSX                         09960042
         LCLB  &B,&SUB                                                  10020042
         LCLA  &IBITS,&ISHIFT,&K,&T,&CODE,&BYTESP,&OP                   10080042
         LCLC  &S,&LETTER,&ARG                                          10140042
       ACTR  500000                                                     10200042
         AIF   (&DIAGTST EQ 0).NOMSG                                    10260042
         AIF   (&INITIAL EQ 0).NOMSG                                    10320042
         AIF   (&DIAGLIN EQ 1).NOMSG                                    10380042
         MNOTE '**NO LINE ASSOCIATED WITH THIS DATA**'                  10440042
*****THE FOLLOWING GENERATED FOR TEST PURPOSES*****                     10500042
*        LINE                                                           10560042
         LINE                                                           10620042
.NOMSG   ANOP                                                           10680042
         AIF   (K'&SYSLIST(1) EQ K'&SYSLIST(1,1)).LOOP                  10740042
&SUB     SETB  1                                                        10800042
.LOOP    ANOP                                                           10860042
&OP      SETA  &OP+1                                                    10920042
&ARG     SETC  '&SYSLIST(&OP,1)'                                        10980042
         ITEMFIND  &ARG                                                 11040042
         AIF   (&ITEMXPT EQ 0).MEXIT                                    11100042
.FOUND   ANOP                                                           11160042
&ISHIFT  SETA  &SHIFT(&ITEMXPT)                                         11220042
&IBITS   SETA  &BITS(&ITEMXPT)                                          11280042
         AIF   (&ISHIFT EQ 0 OR &ISHIFT EQ 4).ALIGN                     11340042
.ERR     MNOTE '**DATA NOT ALLIGNED ON HEX OR BYTE BOUNDARY**'          11400042
.MEXIT   MEXIT                                                          11460042
.ALIGN   ANOP                                                           11520042
&CODE    SETA  1                                                        11580042
         AIF   (&SUB EQ 1).SUBA                                         11640042
&K       SETA  K'&SYSLIST(3)                                            11700042
         AGO   .SUBB                                                    11760042
.SUBA    ANOP                                                           11820042
&K       SETA  K'&SYSLIST(&OP,3)                                        11880042
.SUBB    ANOP                                                           11940042
         AIF   (&K EQ 1).ERR3                                           12000042
         AIF   (&IBITS-(&IBITS/4)*4 EQ 0).OK                            12060042
         MNOTE '**BIT LENGTH SPECIFICATION INCONSISTENT WITH CONTROL**' 12120042
         MEXIT                                                          12180042
.OK      AIF   (&SUB EQ 1).SUBC                                         12240042
         AIF   ('&SYSLIST(3)' EQ '').USEDEFN                            12300042
&LETTER  SETC  '&SYSLIST(3)'(&K,1)                                      12360042
&S       SETC  '&SYSLIST(3)'(1,&K-1)                                    12420042
         AGO   .SUBD                                                    12480042
.SUBC    ANOP                                                           12540042
         AIF   ('&SYSLIST(&OP,3)' EQ '').USEDEFN                        12600042
&LETTER  SETC  '&SYSLIST(&OP,3)'(&K,1)                                  12660042
&S       SETC  '&SYSLIST(&OP,3)'(1,&K-1)                                12720042
.SUBD    ANOP                                                           12780042
&BYTESP  SETA  &S                                                       12840042
         AIF   ('&LETTER' EQ 'B').BOTH                                  12900042
         AIF   ('&LETTER' EQ 'L').LEFT                                  12960042
         AIF   ('&LETTER' EQ 'R').RIGHT                                 13020042
.ERR3    MNOTE '**PARAMETER 3 INCOMPLETE-DSGEN DEFINITION USED**'       13080042
         AGO   .USEDEFN                                                 13140042
.RIGHT   ANOP                                                           13200042
&CODE    SETA  2                                                        13260042
         AGO   .L                                                       13320042
.LEFT    ANOP                                                           13380042
&CODE    SETA  1                                                        13440042
         AGO   .L                                                       13500042
.USEDEFN ANOP                                                           13560042
&BYTESP  SETA  &IBITS/8                                                 13620042
.BOTH    AIF   (&ISHIFT NE 0).ERR                                       13680042
&CODE    SETA  3                                                        13740042
&T       SETA  &BYTESP*2-1                                              13800042
&S       SETC  '&T'                                                     13860042
.OK2     AIF   (&ISHIFT EQ 0).L                                         13920042
&CODE    SETA  2                                                        13980042
.L       ANOP                                                           14040042
&B       SETB  1                                                        14100042
         AIF   (&SUB EQ 1).SUBE                                         14160042
         AIF   ('&SYSLIST(2)' EQ '').BACKUP                             14220042
&K       SETA  K'&SYSLIST(2)                                            14280042
&B       SETB  ('&SYSLIST(2)'(1,1) EQ 'B')                              14340042
&S       SETC  '&SYSLIST(2)'(&B+1,&K-&B)                                14400042
         AGO   .SUBF                                                    14460042
.SUBE    ANOP                                                           14520042
         AIF   ('&SYSLIST(&OP,2)' EQ '').BACKUP                         14580042
&K       SETA  K'&SYSLIST(&OP,2)                                        14640042
&B       SETB  ('&SYSLIST(&OP,2)'(1,1) EQ 'B')                          14700042
&S       SETC  '&SYSLIST(&OP,2)'(&B+1,&K-&B)                            14760042
.SUBF    ANOP                                                           14820042
.BACKUP  ANOP                                                           14880042
&NRENTS  SETA  &NRENTS+1                                                14940042
         AIF   (&BYTESP GT 0 AND &BYTESP LT 16).SUB0                    15000042
         MNOTE '**NO. OF BYTES OUTSIDE RANGE OF 1-15**'                 15060042
         MEXIT                                                          15120042
.SUB0    AIF   (&SUB EQ 1).SUBG                                         15180042
         DC    AL.12(&SYSLIST(1)-&DSECT),XL.4'A'                        15240042
         AGO   .SUBH                                                    15300042
.SUBG    ANOP                                                           15360042
         DC    AL.12(&SYSLIST(&OP,1)-&DSECT),XL.4'A'                    15420042
.SUBH    ANOP                                                           15480042
         DC    BL.1'&B',FL.7'&S',AL.4(&BYTESP),FL.4'&CODE'              15540042
.OUT     ANOP                                                           15600042
&ITEMXPT     SETA  0                                                    15660042
         AIF   (&SUB EQ 0).OUTA                                         15720042
         AIF   (&OP LT N'&SYSLIST).LOOP                                 15780042
.OUTA    ANOP                                                           15840042
         MEND                                                           15900042
         MACRO                                                          15960042
         BIN   ,                                                        16020042
.*                                 &SYSLIST(&OP,1) - NAME OF LOG ITEM   16080042
.*                                      RECORD DSECT                    16140042
.*                                 $SYSLIST(&OP,2) - NBR OF SPACES      16200042
.*                                      TO SKIP ON MULTIPLE             16260042
.*                                      PRINT OR NBR OF SPACES          16320042
.*                                      TO BACK UP FROM COLUMN FOR      16380042
.*                                      START OF PRINTING. THE LETTER   16440042
.*                                      B PRECEEDS THE NUMBER (B5) IF   16500042
.*                                      THE LATTER IS DESIRED. OMISSION 16560042
.*                                      OF THIS OPERAND FORCES OPTION 2 16620042
.*                                      WITH BACKUP SPACING EQUAL TO    16680042
.*                                 THE NUMBER OF BITS IN THE ITEM       16740042
.*                                 DEFINITION (VIA MACRO 'DSGEN').      16800042
.*                            A LIMIT OF 15 BITS IS IMPOSED FOR THE     16860042
.*                                 TOTAL NUMBER OF BITS TO PRINT.       16920042
         GBLA  &BITS(2600),&DB,&DT,&INITIAL                             16980042
         GBLA  &ITEMITR,&ITEMFST(20),&ITEMNBR,&ITEMMDX                  17040042
         GBLA  &ITEMNDX(2600),&ITEMXPT                                  17100042
         GBLA  &LABELNR,&LASTCC,&LB,&LBLCTR(100),&LPTR,&LT              17160042
         GBLA  &NRENTS,&SHIFT(2600)                                     17220042
         GBLB  &DIAGITF,&DIAGLIN,&DIAGSET,&DIAGTST,&FSW,&TEST           17280042
         GBLC  &CARRCON,&CSECT,&DSECT,&ITEM(2600)                       17340042
         GBLC  &LABELS(2600),&LBL(100),&NRENTSX                         17400042
         LCLB  &B,&SUB                                                  17460042
         LCLA  &IBITS,&ISHIFT,&K                                        17520042
         LCLA  &TEMP,&T,&OP                                             17580042
         LCLC  &S,&ARG                                                  17640042
          ACTR  500000                                                  17700042
         AIF   (&DIAGTST EQ 0).NOMSG                                    17760042
         AIF   (&INITIAL EQ 0).NOMSG                                    17820042
         AIF   (&DIAGLIN EQ 1).NOMSG                                    17880042
         MNOTE '**NO LINE ASSOCIATED WITH THIS DATA**'                  17940042
*****THE FOLLOWING GENERATED FOR TEST PURPOSES*****                     18000042
*        LINE                                                           18060042
         LINE                                                           18120042
.NOMSG   ANOP                                                           18180042
         AIF   (K'&SYSLIST(1) EQ K'&SYSLIST(1,1)).LOOP                  18240042
&SUB     SETB  1                                                        18300042
.LOOP    ANOP                                                           18360042
&OP      SETA  &OP+1                                                    18420042
&ARG     SETC  '&SYSLIST(&OP,1)'                                        18480042
         ITEMFIND &ARG                                                  18540042
         AIF   (&ITEMXPT EQ 0).MEXIT                                    18600042
&ISHIFT  SETA  &SHIFT(&ITEMXPT)                                         18660042
&IBITS   SETA  &BITS(&ITEMXPT)                                          18720042
         AIF   (&SUB EQ 1).SUB00                                        18780042
         AIF   ('&SYSLIST(3)' EQ '').SETT                               18840042
&IBITS   SETA  &SYSLIST(3)                                              18900042
         AGO   .SETT                                                    18960042
.SUB00   AIF   ('&SYSLIST(&OP,3)' EQ '').SETT                           19020042
&IBITS   SETA  &SYSLIST(&OP,3)                                          19080042
.SETT    ANOP                                                           19140042
&T       SETA  &IBITS-1                                                 19200042
&B       SETB  0                                                        19260042
         AIF   (&IBITS GT 0 AND &IBITS LT 16).SUB0                      19320042
         MNOTE '**NO. OF BITS OUTSIDE RANGE OF 1-15**'                  19380042
.MEXIT   MEXIT                                                          19440042
.SUB0    AIF   (&SUB EQ 1).SUBA                                         19500042
         AIF   ('&SYSLIST(2)' EQ '').BACKUP                             19560042
&K       SETA  K'&SYSLIST(2)                                            19620042
&B       SETB  ('&SYSLIST(2)'(1,1) EQ 'B')                              19680042
&S       SETC  '&SYSLIST(2)'(&B+1,&K-&B)                                19740042
         AGO   .SUBB                                                    19800042
.SUBA    ANOP                                                           19860042
         AIF   ('&SYSLIST(&OP,2)' EQ '').BACKUP                         19920042
&K       SETA  K'&SYSLIST(&OP,2)                                        19980042
&B       SETB  ('&SYSLIST(&OP,2)'(1,1) EQ 'B')                          20040042
&S       SETC  '&SYSLIST(&OP,2)'(&B+1,&K-&B)                            20100042
.SUBB    ANOP                                                           20160042
&T       SETA  &S                                                       20220042
.BACKUP  ANOP                                                           20280042
&NRENTS  SETA  &NRENTS+1                                                20340042
&TEMP    SETA  &ISHIFT                                                  20400042
         AIF   (&IBITS NE 1 OR &B NE 0).BIN2                            20460042
         DC    AL.12(&SYSLIST(&OP,1)-&DSECT),XL.4'&TEMP'                20520042
         AGO   .OUT                                                     20580042
         AIF   (&SUB EQ 1).BIN2                                         20640042
         AIF   ('&SYSLIST(2)' NE '').BIN3                               20700042
         AGO   .BIN2A                                                   20760042
.BIN2    AIF   ('&SYSLIST(&OP,2)' NE '').BIN3                           20820042
.BIN2A   ANOP                                                           20880042
&B       SETB  1                                                        20940042
.BIN3    ANOP                                                           21000042
         DC    AL.12(&SYSLIST(&OP,1)-&DSECT),XL.4'C'                    21060042
         DC    BL.1'&B',AL.7(&T),AL.4(&IBITS),FL.4'&ISHIFT'             21120042
.OUT     ANOP                                                           21180042
&ITEMXPT     SETA  0                                                    21240042
         AIF   (&SUB EQ 0).OUTA                                         21300042
         AIF   (&OP LT N'&SYSLIST).LOOP                                 21360042
.OUTA    ANOP                                                           21420042
         MEND                                                           21480042
         MACRO                                                          21540042
&NAME    LINE  &DATA,&LABEL,&SKIP=                                      21600042
.*                            THIS MACRO ESTABLISHES THE MARGINS OR     21660042
.*                                 COLUMN SETTINGS FOR EACH LINE. IT    21720042
.*                                 GENERATES NECESSARY CARRIAGE CONTROL 21780042
.*                                 ENTRIES. LASTLY IT DETERMINES THE    21840042
.*                                 NUMBER OF ENTRIES ASSOCIATED WITH    21900042
.*                                 THE PREVIOUS LINE AND STORES THAT #  21960042
.*                                 INTO THE APPROPRIATE BYTE.           22020042
.*                            &DATA(1) - CHARACTER POSITION TO BEGIN    22080042
.*                                 DATA.                                22140042
.*                            &DATA(2) - # OF SPACES BETWEEN SUCCESSIVE 22200042